<?xml version="1.0" encoding="UTF-8"?>

<!-- generated on 2024-04-29 11:41:57 by Eclipse SUMO jtrrouter Version 1.19.0
<configuration xmlns:xsi="http://www.w3.org/2001/XMLSchema-instance" xsi:noNamespaceSchemaLocation="http://sumo.dlr.de/xsd/jtrrouterConfiguration.xsd">

    <input>
        <net-file value="4.net.xml"/>
        <route-files value="vtype_def.xml,vdistribution_def.xml,v_vehs.flows.xml"/>
        <turn-ratio-files value="v_vehs.turns.xml"/>
    </input>

    <output>
        <output-file value="v_vehs.rou.xml"/>
    </output>

    <processing>
        <accept-all-destinations value="true"/>
    </processing>

</configuration>
-->

<routes xmlns:xsi="http://www.w3.org/2001/XMLSchema-instance" xsi:noNamespaceSchemaLocation="http://sumo.dlr.de/xsd/routes_file.xsd">
    <vType id="vt_car" minGap="2.50" maxSpeed="15.00" vClass="passenger" color="yellow" laneChangeModel="LC2013" accel="2.6" decel="4.5" sigma="0.5"/>
    <vehicle id="chegongzhuangxilu_east_T2.0" type="vt_car" depart="0.00" departLane="best">
        <route edges="E3 E4 E5 E6"/>
    </vehicle>
    <vehicle id="chegongzhuangxilu_west_T2.0" type="vt_car" depart="0.00" departLane="best">
        <route edges="E8 E9 E7"/>
    </vehicle>
    <vehicle id="fuchenglu_east_T2.0" type="vt_car" depart="0.00" departLane="best">
        <route edges="E33 E34 E35"/>
    </vehicle>
    <vehicle id="fuchenglu_west_T2.0" type="vt_car" depart="0.00" departLane="best">
        <route edges="E37 E38 E36"/>
    </vehicle>
    <vehicle id="shoutinanlu_north_T2.0" type="vt_car" depart="0.00" departLane="best">
        <route edges="E10 E11 E12 E13 E16 E17 E29 E30 E35"/>
    </vehicle>
    <vehicle id="zengguanglu_east_T2.0" type="vt_car" depart="0.00" departLane="best">
        <route edges="E19 E18 E24 E25"/>
    </vehicle>
    <vehicle id="zengguanglu_west_T2.0" type="vt_car" depart="0.00" departLane="best">
        <route edges="E23 E22 E20 E21"/>
    </vehicle>
    <vehicle id="zengguanglu_east_T2.1" type="vt_car" depart="9.52" departLane="best">
        <route edges="E19 E18 E29 E30 E35"/>
    </vehicle>
    <vehicle id="chegongzhuangxilu_east_T2.1" type="vt_car" depart="10.03" departLane="best">
        <route edges="E3 E4 E5 E6"/>
    </vehicle>
    <vehicle id="chegongzhuangxilu_west_T2.1" type="vt_car" depart="11.69" departLane="best">
        <route edges="E8 E9 E7"/>
    </vehicle>
    <vehicle id="shoutinanlu_north_T2.1" type="vt_car" depart="12.08" departLane="best">
        <route edges="E10 E11 E12 E13 E7"/>
    </vehicle>
    <vehicle id="zengguanglu_east_T2.2" type="vt_car" depart="19.05" departLane="best">
        <route edges="E19 E18 E29 E30 E35"/>
    </vehicle>
    <vehicle id="chegongzhuangxilu_east_T2.2" type="vt_car" depart="20.06" departLane="best">
        <route edges="E3 E4 E5 E6"/>
    </vehicle>
    <vehicle id="zengguanglu_west_T2.1" type="vt_car" depart="21.95" departLane="best">
        <route edges="E23 E22 E29 E30 E35"/>
    </vehicle>
    <vehicle id="fuchenglu_east_T2.1" type="vt_car" depart="22.93" departLane="best">
        <route edges="E33 E34 E35"/>
    </vehicle>
    <vehicle id="chegongzhuangxilu_west_T2.2" type="vt_car" depart="23.38" departLane="best">
        <route edges="E8 E9 E0 E1 E2"/>
    </vehicle>
    <vehicle id="shoutinanlu_north_T2.2" type="vt_car" depart="24.16" departLane="best">
        <route edges="E10 E11 E12 E13 E7"/>
    </vehicle>
    <vehicle id="zengguanglu_east_T2.3" type="vt_car" depart="28.57" departLane="best">
        <route edges="E19 E18 E24 E25"/>
    </vehicle>
    <vehicle id="chegongzhuangxilu_east_T2.3" type="vt_car" depart="30.08" departLane="best">
        <route edges="E3 E4 E5 E16 E17 E24 E25"/>
    </vehicle>
    <vehicle id="chegongzhuangxilu_west_T2.3" type="vt_car" depart="35.06" departLane="best">
        <route edges="E8 E9 E7"/>
    </vehicle>
    <vehicle id="shoutinanlu_north_T2.3" type="vt_car" depart="36.24" departLane="best">
        <route edges="E10 E11 E12 E13 E16 E17 E20 E21"/>
    </vehicle>
    <vehicle id="zengguanglu_east_T2.4" type="vt_car" depart="38.10" departLane="best">
        <route edges="E19 E18 E15 E14 E7"/>
    </vehicle>
    <vehicle id="chegongzhuangxilu_east_T2.4" type="vt_car" depart="40.11" departLane="best">
        <route edges="E3 E4 E5 E6"/>
    </vehicle>
    <vehicle id="fuchenglu_west_T2.1" type="vt_car" depart="40.45" departLane="best">
        <route edges="E37 E38 E27 E26 E24 E25"/>
    </vehicle>
    <vehicle id="zengguanglu_west_T2.2" type="vt_car" depart="43.90" departLane="best">
        <route edges="E23 E22 E20 E21"/>
    </vehicle>
    <vehicle id="fuchenglu_east_T2.2" type="vt_car" depart="45.86" departLane="best">
        <route edges="E33 E34 E27 E26 E15 E14 E7"/>
    </vehicle>
    <vehicle id="chegongzhuangxilu_west_T2.4" type="vt_car" depart="46.75" departLane="best">
        <route edges="E8 E9 E0 E1 E2"/>
    </vehicle>
    <vehicle id="zengguanglu_east_T2.5" type="vt_car" depart="47.62" departLane="best">
        <route edges="E19 E18 E15 E14 E7"/>
    </vehicle>
    <vehicle id="shoutinanlu_north_T2.4" type="vt_car" depart="48.32" departLane="best">
        <route edges="E10 E11 E12 E13 E7"/>
    </vehicle>
    <vehicle id="chegongzhuangxilu_east_T2.5" type="vt_car" depart="50.14" departLane="best">
        <route edges="E3 E4 E5 E6"/>
    </vehicle>
    <vehicle id="zengguanglu_east_T2.6" type="vt_car" depart="57.14" departLane="best">
        <route edges="E19 E18 E24 E25"/>
    </vehicle>
    <vehicle id="chegongzhuangxilu_west_T2.5" type="vt_car" depart="58.44" departLane="best">
        <route edges="E8 E9 E7"/>
    </vehicle>
    <vehicle id="chegongzhuangxilu_east_T2.6" type="vt_car" depart="60.17" departLane="best">
        <route edges="E3 E4 E5 E6"/>
    </vehicle>
    <vehicle id="shoutinanlu_north_T2.5" type="vt_car" depart="60.41" departLane="best">
        <route edges="E10 E11 E12 E13 E16 E17 E24 E25"/>
    </vehicle>
    <vehicle id="zengguanglu_west_T2.3" type="vt_car" depart="65.85" departLane="best">
        <route edges="E23 E22 E20 E21"/>
    </vehicle>
    <vehicle id="zengguanglu_east_T2.7" type="vt_car" depart="66.67" departLane="best">
        <route edges="E19 E18 E15 E14 E6"/>
    </vehicle>
    <vehicle id="fuchenglu_east_T2.3" type="vt_car" depart="68.79" departLane="best">
        <route edges="E33 E34 E27 E26 E24 E25"/>
    </vehicle>
    <vehicle id="chegongzhuangxilu_west_T2.6" type="vt_car" depart="70.13" departLane="best">
        <route edges="E8 E9 E7"/>
    </vehicle>
    <vehicle id="chegongzhuangxilu_east_T2.7" type="vt_car" depart="70.20" departLane="best">
        <route edges="E3 E4 E5 E6"/>
    </vehicle>
    <vehicle id="shoutinanlu_north_T2.6" type="vt_car" depart="72.49" departLane="best">
        <route edges="E10 E11 E12 E13 E6"/>
    </vehicle>
    <vehicle id="zengguanglu_east_T2.8" type="vt_car" depart="76.19" departLane="best">
        <route edges="E19 E18 E24 E25"/>
    </vehicle>
    <vehicle id="chegongzhuangxilu_east_T2.8" type="vt_car" depart="80.22" departLane="best">
        <route edges="E3 E4 E5 E6"/>
    </vehicle>
    <vehicle id="fuchenglu_west_T2.2" type="vt_car" depart="80.90" departLane="best">
        <route edges="E37 E38 E27 E26 E20 E21"/>
    </vehicle>
    <vehicle id="chegongzhuangxilu_west_T2.7" type="vt_car" depart="81.82" departLane="best">
        <route edges="E8 E9 E7"/>
    </vehicle>
    <vehicle id="shoutinanlu_north_T2.7" type="vt_car" depart="84.57" departLane="best">
        <route edges="E10 E11 E12 E13 E6"/>
    </vehicle>
    <vehicle id="zengguanglu_east_T2.9" type="vt_car" depart="85.72" departLane="best">
        <route edges="E19 E18 E24 E25"/>
    </vehicle>
    <vehicle id="zengguanglu_west_T2.4" type="vt_car" depart="87.80" departLane="best">
        <route edges="E23 E22 E29 E30 E35"/>
    </vehicle>
    <vehicle id="chegongzhuangxilu_east_T2.9" type="vt_car" depart="90.25" departLane="best">
        <route edges="E3 E4 E5 E6"/>
    </vehicle>
    <vehicle id="fuchenglu_east_T2.4" type="vt_car" depart="91.72" departLane="best">
        <route edges="E33 E34 E35"/>
    </vehicle>
    <vehicle id="chegongzhuangxilu_west_T2.8" type="vt_car" depart="93.50" departLane="best">
        <route edges="E8 E9 E7"/>
    </vehicle>
    <vehicle id="zengguanglu_east_T2.10" type="vt_car" depart="95.24" departLane="best">
        <route edges="E19 E18 E15 E14 E16 E17 E24 E25"/>
    </vehicle>
    <vehicle id="shoutinanlu_north_T2.8" type="vt_car" depart="96.65" departLane="best">
        <route edges="E10 E11 E12 E13 E16 E17 E29 E30 E36"/>
    </vehicle>
    <vehicle id="chegongzhuangxilu_east_T2.10" type="vt_car" depart="100.28" departLane="best">
        <route edges="E3 E4 E5 E6"/>
    </vehicle>
    <vehicle id="zengguanglu_east_T2.11" type="vt_car" depart="104.76" departLane="best">
        <route edges="E19 E18 E15 E14 E7"/>
    </vehicle>
    <vehicle id="chegongzhuangxilu_west_T2.9" type="vt_car" depart="105.19" departLane="best">
        <route edges="E8 E9 E0 E1 E2"/>
    </vehicle>
    <vehicle id="shoutinanlu_north_T2.9" type="vt_car" depart="108.73" departLane="best">
        <route edges="E10 E11 E12 E13 E16 E17 E29 E30 E36"/>
    </vehicle>
    <vehicle id="zengguanglu_west_T2.5" type="vt_car" depart="109.76" departLane="best">
        <route edges="E23 E22 E20 E21"/>
    </vehicle>
    <vehicle id="chegongzhuangxilu_east_T2.11" type="vt_car" depart="110.31" departLane="best">
        <route edges="E3 E4 E5 E6"/>
    </vehicle>
    <vehicle id="zengguanglu_east_T2.12" type="vt_car" depart="114.29" departLane="best">
        <route edges="E19 E18 E24 E25"/>
    </vehicle>
    <vehicle id="fuchenglu_east_T2.5" type="vt_car" depart="114.65" departLane="best">
        <route edges="E33 E34 E35"/>
    </vehicle>
    <vehicle id="chegongzhuangxilu_west_T2.10" type="vt_car" depart="116.88" departLane="best">
        <route edges="E8 E9 E0 E1 E2"/>
    </vehicle>
    <vehicle id="chegongzhuangxilu_east_T2.12" type="vt_car" depart="120.34" departLane="best">
        <route edges="E3 E4 E5 E6"/>
    </vehicle>
    <vehicle id="shoutinanlu_north_T2.10" type="vt_car" depart="120.81" departLane="best">
        <route edges="E10 E11 E12 E13 E7"/>
    </vehicle>
    <vehicle id="fuchenglu_west_T2.3" type="vt_car" depart="121.35" departLane="best">
        <route edges="E37 E38 E27 E26 E15 E14 E0 E1 E2"/>
    </vehicle>
    <vehicle id="zengguanglu_east_T2.13" type="vt_car" depart="123.81" departLane="best">
        <route edges="E19 E18 E29 E30 E36"/>
    </vehicle>
    <vehicle id="chegongzhuangxilu_west_T2.11" type="vt_car" depart="128.57" departLane="best">
        <route edges="E8 E9 E7"/>
    </vehicle>
    <vehicle id="chegongzhuangxilu_east_T2.13" type="vt_car" depart="130.36" departLane="best">
        <route edges="E3 E4 E5 E6"/>
    </vehicle>
    <vehicle id="zengguanglu_west_T2.6" type="vt_car" depart="131.71" departLane="best">
        <route edges="E23 E22 E20 E21"/>
    </vehicle>
    <vehicle id="shoutinanlu_north_T2.11" type="vt_car" depart="132.89" departLane="best">
        <route edges="E10 E11 E12 E13 E16 E17 E15 E14 E7"/>
    </vehicle>
    <vehicle id="zengguanglu_east_T2.14" type="vt_car" depart="133.34" departLane="best">
        <route edges="E19 E18 E15 E14 E0 E1 E2"/>
    </vehicle>
    <vehicle id="fuchenglu_east_T2.6" type="vt_car" depart="137.58" departLane="best">
        <route edges="E33 E34 E35"/>
    </vehicle>
    <vehicle id="chegongzhuangxilu_west_T2.12" type="vt_car" depart="140.26" departLane="best">
        <route edges="E8 E9 E7"/>
    </vehicle>
    <vehicle id="chegongzhuangxilu_east_T2.14" type="vt_car" depart="140.39" departLane="best">
        <route edges="E3 E4 E5 E6"/>
    </vehicle>
    <vehicle id="zengguanglu_east_T2.15" type="vt_car" depart="142.86" departLane="best">
        <route edges="E19 E18 E24 E25"/>
    </vehicle>
    <vehicle id="shoutinanlu_north_T2.12" type="vt_car" depart="144.97" departLane="best">
        <route edges="E10 E11 E12 E13 E16 E17 E29 E30 E35"/>
    </vehicle>
    <vehicle id="chegongzhuangxilu_east_T2.15" type="vt_car" depart="150.42" departLane="best">
        <route edges="E3 E4 E5 E6"/>
    </vehicle>
    <vehicle id="chegongzhuangxilu_west_T2.13" type="vt_car" depart="151.94" departLane="best">
        <route edges="E8 E9 E7"/>
    </vehicle>
    <vehicle id="zengguanglu_east_T2.16" type="vt_car" depart="152.38" departLane="best">
        <route edges="E19 E18 E15 E14 E7"/>
    </vehicle>
    <vehicle id="zengguanglu_west_T2.7" type="vt_car" depart="153.66" departLane="best">
        <route edges="E23 E22 E29 E30 E35"/>
    </vehicle>
    <vehicle id="shoutinanlu_north_T2.13" type="vt_car" depart="157.05" departLane="best">
        <route edges="E10 E11 E12 E13 E7"/>
    </vehicle>
    <vehicle id="chegongzhuangxilu_east_T2.16" type="vt_car" depart="160.45" departLane="best">
        <route edges="E3 E4 E5 E6"/>
    </vehicle>
    <vehicle id="fuchenglu_east_T2.7" type="vt_car" depart="160.51" departLane="best">
        <route edges="E33 E34 E35"/>
    </vehicle>
    <vehicle id="fuchenglu_west_T2.4" type="vt_car" depart="161.80" departLane="best">
        <route edges="E37 E38 E36"/>
    </vehicle>
    <vehicle id="zengguanglu_east_T2.17" type="vt_car" depart="161.91" departLane="best">
        <route edges="E19 E18 E24 E25"/>
    </vehicle>
    <vehicle id="chegongzhuangxilu_west_T2.14" type="vt_car" depart="163.63" departLane="best">
        <route edges="E8 E9 E16 E17 E29 E30 E36"/>
    </vehicle>
    <vehicle id="shoutinanlu_north_T2.14" type="vt_car" depart="169.13" departLane="best">
        <route edges="E10 E11 E12 E13 E6"/>
    </vehicle>
    <vehicle id="chegongzhuangxilu_east_T2.17" type="vt_car" depart="170.48" departLane="best">
        <route edges="E3 E4 E5 E16 E17 E29 E30 E35"/>
    </vehicle>
    <vehicle id="zengguanglu_east_T2.18" type="vt_car" depart="171.43" departLane="best">
        <route edges="E19 E18 E29 E30 E36"/>
    </vehicle>
    <vehicle id="chegongzhuangxilu_west_T2.15" type="vt_car" depart="175.32" departLane="best">
        <route edges="E8 E9 E16 E17 E29 E30 E35"/>
    </vehicle>
    <vehicle id="zengguanglu_west_T2.8" type="vt_car" depart="175.61" departLane="best">
        <route edges="E23 E22 E29 E30 E35"/>
    </vehicle>
    <vehicle id="chegongzhuangxilu_east_T2.18" type="vt_car" depart="180.50" departLane="best">
        <route edges="E3 E4 E5 E6"/>
    </vehicle>
    <vehicle id="zengguanglu_east_T2.19" type="vt_car" depart="180.96" departLane="best">
        <route edges="E19 E18 E15 E14 E7"/>
    </vehicle>
    <vehicle id="shoutinanlu_north_T2.15" type="vt_car" depart="181.22" departLane="best">
        <route edges="E10 E11 E12 E13 E7"/>
    </vehicle>
    <vehicle id="fuchenglu_east_T2.8" type="vt_car" depart="183.44" departLane="best">
        <route edges="E33 E34 E35"/>
    </vehicle>
    <vehicle id="chegongzhuangxilu_west_T2.16" type="vt_car" depart="187.01" departLane="best">
        <route edges="E8 E9 E7"/>
    </vehicle>
    <vehicle id="zengguanglu_east_T2.20" type="vt_car" depart="190.48" departLane="best">
        <route edges="E19 E18 E29 E30 E36"/>
    </vehicle>
    <vehicle id="chegongzhuangxilu_east_T2.19" type="vt_car" depart="190.53" departLane="best">
        <route edges="E3 E4 E5 E6"/>
    </vehicle>
    <vehicle id="shoutinanlu_north_T2.16" type="vt_car" depart="193.30" departLane="best">
        <route edges="E10 E11 E12 E13 E16 E17 E15 E14 E0 E1 E2"/>
    </vehicle>
    <vehicle id="zengguanglu_west_T2.9" type="vt_car" depart="197.56" departLane="best">
        <route edges="E23 E22 E29 E30 E35"/>
    </vehicle>
    <vehicle id="chegongzhuangxilu_west_T2.17" type="vt_car" depart="198.70" departLane="best">
        <route edges="E8 E9 E7"/>
    </vehicle>
    <vehicle id="zengguanglu_east_T2.21" type="vt_car" depart="200.00" departLane="best">
        <route edges="E19 E18 E29 E30 E36"/>
    </vehicle>
    <vehicle id="chegongzhuangxilu_east_T2.20" type="vt_car" depart="200.56" departLane="best">
        <route edges="E3 E4 E5 E0 E1 E2"/>
    </vehicle>
    <vehicle id="fuchenglu_west_T2.5" type="vt_car" depart="202.25" departLane="best">
        <route edges="E37 E38 E27 E26 E15 E14 E0 E1 E2"/>
    </vehicle>
    <vehicle id="shoutinanlu_north_T2.17" type="vt_car" depart="205.38" departLane="best">
        <route edges="E10 E11 E12 E13 E7"/>
    </vehicle>
    <vehicle id="fuchenglu_east_T2.9" type="vt_car" depart="206.37" departLane="best">
        <route edges="E33 E34 E35"/>
    </vehicle>
    <vehicle id="zengguanglu_east_T2.22" type="vt_car" depart="209.53" departLane="best">
        <route edges="E19 E18 E15 E14 E7"/>
    </vehicle>
    <vehicle id="chegongzhuangxilu_west_T2.18" type="vt_car" depart="210.38" departLane="best">
        <route edges="E8 E9 E7"/>
    </vehicle>
    <vehicle id="chegongzhuangxilu_east_T2.21" type="vt_car" depart="210.59" departLane="best">
        <route edges="E3 E4 E5 E6"/>
    </vehicle>
    <vehicle id="shoutinanlu_north_T2.18" type="vt_car" depart="217.46" departLane="best">
        <route edges="E10 E11 E12 E13 E7"/>
    </vehicle>
    <vehicle id="zengguanglu_east_T2.23" type="vt_car" depart="219.05" departLane="best">
        <route edges="E19 E18 E29 E30 E35"/>
    </vehicle>
    <vehicle id="zengguanglu_west_T2.10" type="vt_car" depart="219.51" departLane="best">
        <route edges="E23 E22 E29 E30 E36"/>
    </vehicle>
    <vehicle id="chegongzhuangxilu_east_T2.22" type="vt_car" depart="220.62" departLane="best">
        <route edges="E3 E4 E5 E6"/>
    </vehicle>
    <vehicle id="chegongzhuangxilu_west_T2.19" type="vt_car" depart="222.07" departLane="best">
        <route edges="E8 E9 E16 E17 E29 E30 E35"/>
    </vehicle>
    <vehicle id="zengguanglu_east_T2.24" type="vt_car" depart="228.58" departLane="best">
        <route edges="E19 E18 E29 E30 E35"/>
    </vehicle>
    <vehicle id="fuchenglu_east_T2.10" type="vt_car" depart="229.30" departLane="best">
        <route edges="E33 E34 E35"/>
    </vehicle>
    <vehicle id="shoutinanlu_north_T2.19" type="vt_car" depart="229.54" departLane="best">
        <route edges="E10 E11 E12 E13 E16 E17 E24 E25"/>
    </vehicle>
    <vehicle id="chegongzhuangxilu_east_T2.23" type="vt_car" depart="230.64" departLane="best">
        <route edges="E3 E4 E5 E6"/>
    </vehicle>
    <vehicle id="chegongzhuangxilu_west_T2.20" type="vt_car" depart="233.76" departLane="best">
        <route edges="E8 E9 E7"/>
    </vehicle>
    <vehicle id="zengguanglu_east_T2.25" type="vt_car" depart="238.10" departLane="best">
        <route edges="E19 E18 E29 E30 E36"/>
    </vehicle>
    <vehicle id="chegongzhuangxilu_east_T2.24" type="vt_car" depart="240.67" departLane="best">
        <route edges="E3 E4 E5 E6"/>
    </vehicle>
    <vehicle id="zengguanglu_west_T2.11" type="vt_car" depart="241.46" departLane="best">
        <route edges="E23 E22 E29 E30 E36"/>
    </vehicle>
    <vehicle id="shoutinanlu_north_T2.20" type="vt_car" depart="241.62" departLane="best">
        <route edges="E10 E11 E12 E13 E16 E17 E29 E30 E35"/>
    </vehicle>
    <vehicle id="fuchenglu_west_T2.6" type="vt_car" depart="242.69" departLane="best">
        <route edges="E37 E38 E27 E26 E15 E14 E0 E1 E2"/>
    </vehicle>
    <vehicle id="chegongzhuangxilu_west_T2.21" type="vt_car" depart="245.45" departLane="best">
        <route edges="E8 E9 E7"/>
    </vehicle>
    <vehicle id="zengguanglu_east_T2.26" type="vt_car" depart="247.62" departLane="best">
        <route edges="E19 E18 E24 E25"/>
    </vehicle>
    <vehicle id="chegongzhuangxilu_east_T2.25" type="vt_car" depart="250.70" departLane="best">
        <route edges="E3 E4 E5 E6"/>
    </vehicle>
    <vehicle id="fuchenglu_east_T2.11" type="vt_car" depart="252.23" departLane="best">
        <route edges="E33 E34 E35"/>
    </vehicle>
    <vehicle id="shoutinanlu_north_T2.21" type="vt_car" depart="253.70" departLane="best">
        <route edges="E10 E11 E12 E13 E7"/>
    </vehicle>
    <vehicle id="chegongzhuangxilu_west_T2.22" type="vt_car" depart="257.14" departLane="best">
        <route edges="E8 E9 E0 E1 E2"/>
    </vehicle>
    <vehicle id="zengguanglu_east_T2.27" type="vt_car" depart="257.15" departLane="best">
        <route edges="E19 E18 E24 E25"/>
    </vehicle>
    <vehicle id="chegongzhuangxilu_east_T2.26" type="vt_car" depart="260.73" departLane="best">
        <route edges="E3 E4 E5 E6"/>
    </vehicle>
    <vehicle id="zengguanglu_west_T2.12" type="vt_car" depart="263.41" departLane="best">
        <route edges="E23 E22 E15 E14 E0 E1 E2"/>
    </vehicle>
    <vehicle id="shoutinanlu_north_T2.22" type="vt_car" depart="265.78" departLane="best">
        <route edges="E10 E11 E12 E13 E6"/>
    </vehicle>
    <vehicle id="zengguanglu_east_T2.28" type="vt_car" depart="266.67" departLane="best">
        <route edges="E19 E18 E15 E14 E7"/>
    </vehicle>
    <vehicle id="chegongzhuangxilu_west_T2.23" type="vt_car" depart="268.82" departLane="best">
        <route edges="E8 E9 E0 E1 E2"/>
    </vehicle>
    <vehicle id="chegongzhuangxilu_east_T2.27" type="vt_car" depart="270.76" departLane="best">
        <route edges="E3 E4 E5 E0 E1 E2"/>
    </vehicle>
    <vehicle id="fuchenglu_east_T2.12" type="vt_car" depart="275.16" departLane="best">
        <route edges="E33 E34 E35"/>
    </vehicle>
    <vehicle id="zengguanglu_east_T2.29" type="vt_car" depart="276.20" departLane="best">
        <route edges="E19 E18 E15 E14 E7"/>
    </vehicle>
    <vehicle id="shoutinanlu_north_T2.23" type="vt_car" depart="277.86" departLane="best">
        <route edges="E10 E11 E12 E13 E6"/>
    </vehicle>
    <vehicle id="chegongzhuangxilu_west_T2.24" type="vt_car" depart="280.51" departLane="best">
        <route edges="E8 E9 E0 E1 E2"/>
    </vehicle>
    <vehicle id="chegongzhuangxilu_east_T2.28" type="vt_car" depart="280.78" departLane="best">
        <route edges="E3 E4 E5 E6"/>
    </vehicle>
    <vehicle id="fuchenglu_west_T2.7" type="vt_car" depart="283.14" departLane="best">
        <route edges="E37 E38 E27 E26 E20 E21"/>
    </vehicle>
    <vehicle id="zengguanglu_west_T2.13" type="vt_car" depart="285.36" departLane="best">
        <route edges="E23 E22 E20 E21"/>
    </vehicle>
    <vehicle id="zengguanglu_east_T2.30" type="vt_car" depart="285.72" departLane="best">
        <route edges="E19 E18 E15 E14 E0 E1 E2"/>
    </vehicle>
    <vehicle id="shoutinanlu_north_T2.24" type="vt_car" depart="289.94" departLane="best">
        <route edges="E10 E11 E12 E13 E7"/>
    </vehicle>
    <vehicle id="chegongzhuangxilu_east_T2.29" type="vt_car" depart="290.81" departLane="best">
        <route edges="E3 E4 E5 E6"/>
    </vehicle>
    <vehicle id="chegongzhuangxilu_west_T2.25" type="vt_car" depart="292.20" departLane="best">
        <route edges="E8 E9 E7"/>
    </vehicle>
    <vehicle id="zengguanglu_east_T2.31" type="vt_car" depart="295.24" departLane="best">
        <route edges="E19 E18 E29 E30 E35"/>
    </vehicle>
    <vehicle id="fuchenglu_east_T2.13" type="vt_car" depart="298.09" departLane="best">
        <route edges="E33 E34 E35"/>
    </vehicle>
    <vehicle id="chegongzhuangxilu_east_T2.30" type="vt_car" depart="300.84" departLane="best">
        <route edges="E3 E4 E5 E16 E17 E29 E30 E35"/>
    </vehicle>
    <vehicle id="shoutinanlu_north_T2.25" type="vt_car" depart="302.03" departLane="best">
        <route edges="E10 E11 E12 E13 E16 E17 E29 E30 E36"/>
    </vehicle>
    <vehicle id="chegongzhuangxilu_west_T2.26" type="vt_car" depart="303.89" departLane="best">
        <route edges="E8 E9 E7"/>
    </vehicle>
    <vehicle id="zengguanglu_east_T2.32" type="vt_car" depart="304.77" departLane="best">
        <route edges="E19 E18 E15 E14 E0 E1 E2"/>
    </vehicle>
    <vehicle id="zengguanglu_west_T2.14" type="vt_car" depart="307.31" departLane="best">
        <route edges="E23 E22 E29 E30 E35"/>
    </vehicle>
    <vehicle id="chegongzhuangxilu_east_T2.31" type="vt_car" depart="310.87" departLane="best">
        <route edges="E3 E4 E5 E6"/>
    </vehicle>
    <vehicle id="shoutinanlu_north_T2.26" type="vt_car" depart="314.11" departLane="best">
        <route edges="E10 E11 E12 E13 E7"/>
    </vehicle>
    <vehicle id="zengguanglu_east_T2.33" type="vt_car" depart="314.29" departLane="best">
        <route edges="E19 E18 E15 E14 E0 E1 E2"/>
    </vehicle>
    <vehicle id="chegongzhuangxilu_west_T2.27" type="vt_car" depart="315.58" departLane="best">
        <route edges="E8 E9 E16 E17 E29 E30 E36"/>
    </vehicle>
    <vehicle id="chegongzhuangxilu_east_T2.32" type="vt_car" depart="320.90" departLane="best">
        <route edges="E3 E4 E5 E6"/>
    </vehicle>
    <vehicle id="fuchenglu_east_T2.14" type="vt_car" depart="321.02" departLane="best">
        <route edges="E33 E34 E35"/>
    </vehicle>
    <vehicle id="fuchenglu_west_T2.8" type="vt_car" depart="323.59" departLane="best">
        <route edges="E37 E38 E36"/>
    </vehicle>
    <vehicle id="zengguanglu_east_T2.34" type="vt_car" depart="323.82" departLane="best">
        <route edges="E19 E18 E24 E25"/>
    </vehicle>
    <vehicle id="shoutinanlu_north_T2.27" type="vt_car" depart="326.19" departLane="best">
        <route edges="E10 E11 E12 E13 E6"/>
    </vehicle>
    <vehicle id="chegongzhuangxilu_west_T2.28" type="vt_car" depart="327.26" departLane="best">
        <route edges="E8 E9 E7"/>
    </vehicle>
    <vehicle id="zengguanglu_west_T2.15" type="vt_car" depart="329.27" departLane="best">
        <route edges="E23 E22 E20 E21"/>
    </vehicle>
    <vehicle id="chegongzhuangxilu_east_T2.33" type="vt_car" depart="330.92" departLane="best">
        <route edges="E3 E4 E5 E6"/>
    </vehicle>
    <vehicle id="zengguanglu_east_T2.35" type="vt_car" depart="333.34" departLane="best">
        <route edges="E19 E18 E24 E25"/>
    </vehicle>
    <vehicle id="shoutinanlu_north_T2.28" type="vt_car" depart="338.27" departLane="best">
        <route edges="E10 E11 E12 E13 E16 E17 E29 E30 E35"/>
    </vehicle>
    <vehicle id="chegongzhuangxilu_west_T2.29" type="vt_car" depart="338.95" departLane="best">
        <route edges="E8 E9 E7"/>
    </vehicle>
    <vehicle id="chegongzhuangxilu_east_T2.34" type="vt_car" depart="340.95" departLane="best">
        <route edges="E3 E4 E5 E0 E1 E2"/>
    </vehicle>
    <vehicle id="zengguanglu_east_T2.36" type="vt_car" depart="342.86" departLane="best">
        <route edges="E19 E18 E15 E14 E7"/>
    </vehicle>
    <vehicle id="fuchenglu_east_T2.15" type="vt_car" depart="343.95" departLane="best">
        <route edges="E33 E34 E35"/>
    </vehicle>
    <vehicle id="shoutinanlu_north_T2.29" type="vt_car" depart="350.35" departLane="best">
        <route edges="E10 E11 E12 E13 E16 E17 E20 E21"/>
    </vehicle>
    <vehicle id="chegongzhuangxilu_west_T2.30" type="vt_car" depart="350.64" departLane="best">
        <route edges="E8 E9 E7"/>
    </vehicle>
    <vehicle id="chegongzhuangxilu_east_T2.35" type="vt_car" depart="350.98" departLane="best">
        <route edges="E3 E4 E5 E6"/>
    </vehicle>
    <vehicle id="zengguanglu_west_T2.16" type="vt_car" depart="351.22" departLane="best">
        <route edges="E23 E22 E20 E21"/>
    </vehicle>
    <vehicle id="zengguanglu_east_T2.37" type="vt_car" depart="352.39" departLane="best">
        <route edges="E19 E18 E24 E25"/>
    </vehicle>
    <vehicle id="chegongzhuangxilu_east_T2.36" type="vt_car" depart="361.01" departLane="best">
        <route edges="E3 E4 E5 E6"/>
    </vehicle>
    <vehicle id="zengguanglu_east_T2.38" type="vt_car" depart="361.91" departLane="best">
        <route edges="E19 E18 E24 E25"/>
    </vehicle>
    <vehicle id="chegongzhuangxilu_west_T2.31" type="vt_car" depart="362.33" departLane="best">
        <route edges="E8 E9 E0 E1 E2"/>
    </vehicle>
    <vehicle id="shoutinanlu_north_T2.30" type="vt_car" depart="362.43" departLane="best">
        <route edges="E10 E11 E12 E13 E16 E17 E29 E30 E35"/>
    </vehicle>
    <vehicle id="fuchenglu_west_T2.9" type="vt_car" depart="364.04" departLane="best">
        <route edges="E37 E38 E36"/>
    </vehicle>
    <vehicle id="fuchenglu_east_T2.16" type="vt_car" depart="366.88" departLane="best">
        <route edges="E33 E34 E35"/>
    </vehicle>
    <vehicle id="chegongzhuangxilu_east_T2.37" type="vt_car" depart="371.04" departLane="best">
        <route edges="E3 E4 E5 E6"/>
    </vehicle>
    <vehicle id="zengguanglu_east_T2.39" type="vt_car" depart="371.44" departLane="best">
        <route edges="E19 E18 E24 E25"/>
    </vehicle>
    <vehicle id="zengguanglu_west_T2.17" type="vt_car" depart="373.17" departLane="best">
        <route edges="E23 E22 E29 E30 E35"/>
    </vehicle>
    <vehicle id="chegongzhuangxilu_west_T2.32" type="vt_car" depart="374.02" departLane="best">
        <route edges="E8 E9 E0 E1 E2"/>
    </vehicle>
    <vehicle id="shoutinanlu_north_T2.31" type="vt_car" depart="374.51" departLane="best">
        <route edges="E10 E11 E12 E13 E6"/>
    </vehicle>
    <vehicle id="zengguanglu_east_T2.40" type="vt_car" depart="380.96" departLane="best">
        <route edges="E19 E18 E29 E30 E36"/>
    </vehicle>
    <vehicle id="chegongzhuangxilu_east_T2.38" type="vt_car" depart="381.06" departLane="best">
        <route edges="E3 E4 E5 E6"/>
    </vehicle>
    <vehicle id="chegongzhuangxilu_west_T2.33" type="vt_car" depart="385.70" departLane="best">
        <route edges="E8 E9 E7"/>
    </vehicle>
    <vehicle id="shoutinanlu_north_T2.32" type="vt_car" depart="386.59" departLane="best">
        <route edges="E10 E11 E12 E13 E16 E17 E24 E25"/>
    </vehicle>
    <vehicle id="fuchenglu_east_T2.17" type="vt_car" depart="389.81" departLane="best">
        <route edges="E33 E34 E35"/>
    </vehicle>
    <vehicle id="zengguanglu_east_T2.41" type="vt_car" depart="390.48" departLane="best">
        <route edges="E19 E18 E24 E25"/>
    </vehicle>
    <vehicle id="chegongzhuangxilu_east_T2.39" type="vt_car" depart="391.09" departLane="best">