<additional>
 <entryExitDetector id="e3_det" freq="300" file="data_e3.xml">
      <detEntry lane="-E2_0" pos="50"/>
      <detEntry lane="-E2_1" pos="50"/>
      <detEntry lane="-E2_2" pos="50"/>

      <detEntry lane="-E3_0" pos="50"/>
      <detEntry lane="-E3_1" pos="50"/>
      <detEntry lane="-E3_2" pos="50"/>
      <detEntry lane="-E3_3" pos="50"/>

      <detEntry lane="-E1_0" pos="50"/>
      <detEntry lane="-E1_1" pos="50"/>
      <detEntry lane="-E1_2" pos="50"/>
      <detEntry lane="-E0_0" pos="50"/>
      <detEntry lane="-E0_1" pos="50"/>
      <detEntry lane="-E0_2" pos="50"/>
      <detEntry lane="-E0_3" pos="50"/>

      <detExit lane="E2_0" pos="50"/>
      <detExit lane="E2_1" pos="50"/>
      <detExit lane="E2_2" pos="50"/>

      <detExit lane="E3_0" pos="50"/>
      <detExit lane="E3_1" pos="50"/>
      <detExit lane="E3_2" pos="50"/>
      <detExit lane="E3_3" pos="50"/>
      <detExit lane="E1_0" pos="50"/>
      <detExit lane="E1_1" pos="50"/>
      <detExit lane="E1_2" pos="50"/>
      <detExit lane="E0_0" pos="50"/>
      <detExit lane="E0_1" pos="50"/>
      <detExit lane="E0_2" pos="50"/>
      <detExit lane="E0_3" pos="50"/>
  </entryExitDetector>
</additional>