<?xml version="1.0" encoding="UTF-8"?>

<!-- generated on 03/20/21 22:32:05 by Eclipse SUMO netedit Version 1.3.1
<configuration xmlns:xsi="http://www.w3.org/2001/XMLSchema-instance" xsi:noNamespaceSchemaLocation="http://sumo.dlr.de/xsd/netconvertConfiguration.xsd">

    <input>
        <sumo-net-file value="C:\Users\10539\Documents\My_SUMO\5.A%20Simple%20Example(TAZ)\ASimpleRoadNet.net.xml"/>
    </input>

    <output>
        <output-file value="C:\Users\10539\Documents\My_SUMO\5.A%20Simple%20Example(TAZ)\ASimpleRoadNet.net.xml"/>
    </output>

    <processing>
        <geometry.max-grade.fix value="false"/>
        <offset.disable-normalization value="true"/>
        <opposites.guess.fix-lengths value="true"/>
        <lefthand value="false"/>
    </processing>

    <junctions>
        <no-turnarounds value="true"/>
        <junctions.corner-detail value="5"/>
        <junctions.limit-turn-speed value="5.5"/>
        <rectangular-lane-cut value="false"/>
    </junctions>

    <pedestrian>
        <walkingareas value="false"/>
    </pedestrian>

    <netedit>
        <additional-files value="C:\Users\10539\Documents\My_SUMO\5.A%20Simple%20Example(TAZ)\additional_taz.xml"/>
    </netedit>

</configuration>
-->

<additional xmlns:xsi="http://www.w3.org/2001/XMLSchema-instance" xsi:noNamespaceSchemaLocation="http://sumo.dlr.de/xsd/additional_file.xsd">
    <taz id="taz_0" shape="-209.64,225.55 -182.91,220.05 -182.91,173.66 -206.50,178.38 -209.64,225.55 -209.64,225.55" color="blue">
        <tazSource id="gneE1" weight="1.00"/>
        <tazSource id="gneE0" weight="1.00"/>
        <tazSink id="gneE1" weight="1.00"/>
        <tazSink id="gneE0" weight="1.00"/>
    </taz>
    <taz id="taz_1" shape="159.88,510.95 233.79,510.17 228.29,467.71 163.03,477.93 159.10,510.17 159.10,510.17 159.88,510.95" color="blue">
        <tazSource id="gneE6" weight="1.00"/>
        <tazSource id="gneE7" weight="1.00"/>
        <tazSink id="gneE6" weight="1.00"/>
        <tazSink id="gneE7" weight="1.00"/>
    </taz>
    <taz id="taz_2" shape="166.96,-71.64 196.05,-116.45 230.64,-86.58 168.53,-71.64 166.96,-71.64" color="blue">
        <tazSource id="gneE2" weight="1.00"/>
        <tazSource id="gneE3" weight="1.00"/>
        <tazSink id="gneE2" weight="1.00"/>
        <tazSink id="gneE3" weight="1.00"/>
    </taz>
    <taz id="taz_3" shape="568.72,507.02 622.97,509.38 624.54,479.50 580.51,474.79 568.72,506.23 568.72,507.02" color="blue">
        <tazSource id="gneE8" weight="1.00"/>
        <tazSource id="gneE9" weight="1.00"/>
        <tazSink id="gneE8" weight="1.00"/>
        <tazSink id="gneE9" weight="1.00"/>
    </taz>
    <taz id="taz_4" shape="583.66,-70.85 629.26,-73.21 611.18,-117.24 568.72,-108.59 583.66,-70.07 583.66,-70.85" color="blue">
        <tazSource id="gneE10" weight="1.00"/>
        <tazSource id="gneE11" weight="1.00"/>
        <tazSink id="gneE10" weight="1.00"/>
        <tazSink id="gneE11" weight="1.00"/>
    </taz>
    <taz id="taz_5" shape="1075.05,240.49 1132.44,194.89 1086.05,164.23 1075.05,238.92 1075.05,240.49" color="blue">
        <tazSource id="gneE12" weight="1.00"/>
        <tazSource id="gneE13" weight="1.00"/>
        <tazSink id="gneE12" weight="1.00"/>
        <tazSink id="gneE13" weight="1.00"/>
    </taz>
</additional>
