<?xml version="1.0" encoding="UTF-8"?>

<!-- generated on 03/20/21 22:31:33 by Eclipse SUMO netedit Version 1.3.1
<configuration xmlns:xsi="http://www.w3.org/2001/XMLSchema-instance" xsi:noNamespaceSchemaLocation="http://sumo.dlr.de/xsd/netconvertConfiguration.xsd">

    <input>
        <sumo-net-file value="C:\Users\10539\Documents\My_SUMO\5.A%20Simple%20Example(TAZ)\ASimpleRoadNet.net.xml"/>
    </input>

    <output>
        <output-file value="C:\Users\10539\Documents\My_SUMO\5.A%20Simple%20Example(TAZ)\ASimpleRoadNet.net.xml"/>
    </output>

    <processing>
        <geometry.max-grade.fix value="false"/>
        <offset.disable-normalization value="true"/>
        <opposites.guess.fix-lengths value="true"/>
        <lefthand value="false"/>
    </processing>

    <junctions>
        <no-turnarounds value="true"/>
        <junctions.corner-detail value="5"/>
        <junctions.limit-turn-speed value="5.5"/>
        <rectangular-lane-cut value="false"/>
    </junctions>

    <pedestrian>
        <walkingareas value="false"/>
    </pedestrian>

</configuration>
-->

<net version="1.3" junctionCornerDetail="5" limitTurnSpeed="5.50" xmlns:xsi="http://www.w3.org/2001/XMLSchema-instance" xsi:noNamespaceSchemaLocation="http://sumo.dlr.de/xsd/net_file.xsd">

    <location netOffset="0.00,0.00" convBoundary="-200.00,-100.00,1100.00,500.00" origBoundary="-10000000000.00,-10000000000.00,10000000000.00,10000000000.00" projParameter="!"/>

    <edge id=":gneJ2_0" function="internal">
        <lane id=":gneJ2_0_0" index="0" speed="6.51" length="9.03" shape="195.20,213.60 194.85,211.15 193.80,209.40 192.05,208.35 189.60,208.00"/>
    </edge>
    <edge id=":gneJ2_1" function="internal">
        <lane id=":gneJ2_1_0" index="0" speed="13.89" length="27.20" shape="195.20,213.60 195.20,186.40"/>
        <lane id=":gneJ2_1_1" index="1" speed="13.89" length="27.20" shape="198.40,213.60 198.40,186.40"/>
    </edge>
    <edge id=":gneJ2_3" function="internal">
        <lane id=":gneJ2_3_0" index="0" speed="9.84" length="8.68" shape="198.40,213.60 199.15,206.95 200.00,205.16"/>
    </edge>
    <edge id=":gneJ2_14" function="internal">
        <lane id=":gneJ2_14_0" index="0" speed="9.84" length="13.32" shape="200.00,205.16 201.40,202.20 205.15,199.35 210.40,198.40"/>
    </edge>
    <edge id=":gneJ2_4" function="internal">
        <lane id=":gneJ2_4_0" index="0" speed="6.51" length="9.03" shape="210.40,208.00 207.95,208.35 206.20,209.40 205.15,211.15 204.80,213.60"/>
    </edge>
    <edge id=":gneJ2_5" function="internal">
        <lane id=":gneJ2_5_0" index="0" speed="13.89" length="20.80" shape="210.40,204.80 189.60,204.80"/>
    </edge>
    <edge id=":gneJ2_6" function="internal">
        <lane id=":gneJ2_6_0" index="0" speed="9.84" length="11.15" shape="210.40,201.60 205.15,200.65 201.40,197.80 200.93,196.80"/>
    </edge>
    <edge id=":gneJ2_15" function="internal">
        <lane id=":gneJ2_15_0" index="0" speed="9.84" length="10.84" shape="200.93,196.80 199.15,193.05 198.40,186.40"/>
    </edge>
    <edge id=":gneJ2_7" function="internal">
        <lane id=":gneJ2_7_0" index="0" speed="6.51" length="9.03" shape="204.80,186.40 205.15,188.85 206.20,190.60 207.95,191.65 210.40,192.00"/>
    </edge>
    <edge id=":gneJ2_8" function="internal">
        <lane id=":gneJ2_8_0" index="0" speed="13.89" length="27.20" shape="204.80,186.40 204.80,213.60"/>
        <lane id=":gneJ2_8_1" index="1" speed="13.89" length="27.20" shape="201.60,186.40 201.60,213.60"/>
    </edge>
    <edge id=":gneJ2_10" function="internal">
        <lane id=":gneJ2_10_0" index="0" speed="9.84" length="8.68" shape="201.60,186.40 200.85,193.05 200.00,194.84"/>
    </edge>
    <edge id=":gneJ2_16" function="internal">
        <lane id=":gneJ2_16_0" index="0" speed="9.84" length="13.32" shape="200.00,194.84 198.60,197.80 194.85,200.65 189.60,201.60"/>
    </edge>
    <edge id=":gneJ2_11" function="internal">
        <lane id=":gneJ2_11_0" index="0" speed="6.51" length="9.03" shape="189.60,192.00 192.05,191.65 193.80,190.60 194.85,188.85 195.20,186.40"/>
    </edge>
    <edge id=":gneJ2_12" function="internal">
        <lane id=":gneJ2_12_0" index="0" speed="13.89" length="20.80" shape="189.60,195.20 210.40,195.20"/>
    </edge>
    <edge id=":gneJ2_13" function="internal">
        <lane id=":gneJ2_13_0" index="0" speed="9.84" length="11.15" shape="189.60,198.40 194.85,199.35 198.60,202.20 199.07,203.20"/>
    </edge>
    <edge id=":gneJ2_17" function="internal">
        <lane id=":gneJ2_17_0" index="0" speed="9.84" length="10.84" shape="199.07,203.20 200.85,206.95 201.60,213.60"/>
    </edge>
    <edge id=":gneJ4_0" function="internal">
        <lane id=":gneJ4_0_0" index="0" speed="6.51" length="9.03" shape="595.20,213.60 594.85,211.15 593.80,209.40 592.05,208.35 589.60,208.00"/>
    </edge>
    <edge id=":gneJ4_1" function="internal">
        <lane id=":gneJ4_1_0" index="0" speed="13.89" length="27.20" shape="595.20,213.60 595.20,186.40"/>
        <lane id=":gneJ4_1_1" index="1" speed="13.89" length="27.20" shape="598.40,213.60 598.40,186.40"/>
    </edge>
    <edge id=":gneJ4_3" function="internal">
        <lane id=":gneJ4_3_0" index="0" speed="9.84" length="8.68" shape="598.40,213.60 599.15,206.95 600.00,205.16"/>
    </edge>
    <edge id=":gneJ4_14" function="internal">
        <lane id=":gneJ4_14_0" index="0" speed="9.84" length="13.32" shape="600.00,205.16 601.40,202.20 605.15,199.35 610.40,198.40"/>
    </edge>
    <edge id=":gneJ4_4" function="internal">
        <lane id=":gneJ4_4_0" index="0" speed="6.51" length="9.03" shape="610.40,208.00 607.95,208.35 606.20,209.40 605.15,211.15 604.80,213.60"/>
    </edge>
    <edge id=":gneJ4_5" function="internal">
        <lane id=":gneJ4_5_0" index="0" speed="13.89" length="20.80" shape="610.40,204.80 589.60,204.80"/>
    </edge>
    <edge id=":gneJ4_6" function="internal">
        <lane id=":gneJ4_6_0" index="0" speed="9.84" length="11.15" shape="610.40,201.60 605.15,200.65 601.40,197.80 600.93,196.80"/>
    </edge>
    <edge id=":gneJ4_15" function="internal">
        <lane id=":gneJ4_15_0" index="0" speed="9.84" length="10.84" shape="600.93,196.80 599.15,193.05 598.40,186.40"/>
    </edge>
    <edge id=":gneJ4_7" function="internal">
        <lane id=":gneJ4_7_0" index="0" speed="6.51" length="9.03" shape="604.80,186.40 605.15,188.85 606.20,190.60 607.95,191.65 610.40,192.00"/>
    </edge>
    <edge id=":gneJ4_8" function="internal">
        <lane id=":gneJ4_8_0" index="0" speed="13.89" length="27.20" shape="604.80,186.40 604.80,213.60"/>
        <lane id=":gneJ4_8_1" index="1" speed="13.89" length="27.20" shape="601.60,186.40 601.60,213.60"/>
    </edge>
    <edge id=":gneJ4_10" function="internal">
        <lane id=":gneJ4_10_0" index="0" speed="9.84" length="8.68" shape="601.60,186.40 600.85,193.05 600.00,194.84"/>
    </edge>
    <edge id=":gneJ4_16" function="internal">
        <lane id=":gneJ4_16_0" index="0" speed="9.84" length="13.32" shape="600.00,194.84 598.60,197.80 594.85,200.65 589.60,201.60"/>
    </edge>
    <edge id=":gneJ4_11" function="internal">
        <lane id=":gneJ4_11_0" index="0" speed="6.51" length="9.03" shape="589.60,192.00 592.05,191.65 593.80,190.60 594.85,188.85 595.20,186.40"/>
    </edge>
    <edge id=":gneJ4_12" function="internal">
        <lane id=":gneJ4_12_0" index="0" speed="13.89" length="20.80" shape="589.60,195.20 610.40,195.20"/>
    </edge>
    <edge id=":gneJ4_13" function="internal">
        <lane id=":gneJ4_13_0" index="0" speed="9.84" length="11.15" shape="589.60,198.40 594.85,199.35 598.60,202.20 599.07,203.20"/>
    </edge>
    <edge id=":gneJ4_17" function="internal">
        <lane id=":gneJ4_17_0" index="0" speed="9.84" length="10.84" shape="599.07,203.20 600.85,206.95 601.60,213.60"/>
    </edge>

    <edge id="gneE0" from="gneJ1" to="gneJ2" priority="-1">
        <lane id="gneE0_0" index="0" speed="13.89" length="389.60" shape="-200.00,192.00 189.60,192.00"/>
        <lane id="gneE0_1" index="1" speed="13.89" length="389.60" shape="-200.00,195.20 189.60,195.20"/>
        <lane id="gneE0_2" index="2" speed="13.89" length="389.60" shape="-200.00,198.40 189.60,198.40"/>
    </edge>
    <edge id="gneE1" from="gneJ2" to="gneJ1" priority="-1">
        <lane id="gneE1_0" index="0" speed="13.89" length="389.60" shape="189.60,208.00 -200.00,208.00"/>
        <lane id="gneE1_1" index="1" speed="13.89" length="389.60" shape="189.60,204.80 -200.00,204.80"/>
        <lane id="gneE1_2" index="2" speed="13.89" length="389.60" shape="189.60,201.60 -200.00,201.60"/>
    </edge>
    <edge id="gneE10" from="gneJ4" to="gneJ8" priority="-1">
        <lane id="gneE10_0" index="0" speed="13.89" length="286.40" shape="595.20,186.40 595.20,-100.00"/>
        <lane id="gneE10_1" index="1" speed="13.89" length="286.40" shape="598.40,186.40 598.40,-100.00"/>
    </edge>
    <edge id="gneE11" from="gneJ8" to="gneJ4" priority="-1">
        <lane id="gneE11_0" index="0" speed="13.89" length="286.40" shape="604.80,-100.00 604.80,186.40"/>
        <lane id="gneE11_1" index="1" speed="13.89" length="286.40" shape="601.60,-100.00 601.60,186.40"/>
    </edge>
    <edge id="gneE12" from="gneJ4" to="gneJ9" priority="-1">
        <lane id="gneE12_0" index="0" speed="13.89" length="489.60" shape="610.40,192.00 1100.00,192.00"/>
        <lane id="gneE12_1" index="1" speed="13.89" length="489.60" shape="610.40,195.20 1100.00,195.20"/>
        <lane id="gneE12_2" index="2" speed="13.89" length="489.60" shape="610.40,198.40 1100.00,198.40"/>
    </edge>
    <edge id="gneE13" from="gneJ9" to="gneJ4" priority="-1">
        <lane id="gneE13_0" index="0" speed="13.89" length="489.60" shape="1100.00,208.00 610.40,208.00"/>
        <lane id="gneE13_1" index="1" speed="13.89" length="489.60" shape="1100.00,204.80 610.40,204.80"/>
        <lane id="gneE13_2" index="2" speed="13.89" length="489.60" shape="1100.00,201.60 610.40,201.60"/>
    </edge>
    <edge id="gneE2" from="gneJ2" to="gneJ3" priority="-1">
        <lane id="gneE2_0" index="0" speed="13.89" length="286.40" shape="195.20,186.40 195.20,-100.00"/>
        <lane id="gneE2_1" index="1" speed="13.89" length="286.40" shape="198.40,186.40 198.40,-100.00"/>
    </edge>
    <edge id="gneE3" from="gneJ3" to="gneJ2" priority="-1">
        <lane id="gneE3_0" index="0" speed="13.89" length="286.40" shape="204.80,-100.00 204.80,186.40"/>
        <lane id="gneE3_1" index="1" speed="13.89" length="286.40" shape="201.60,-100.00 201.60,186.40"/>
    </edge>
    <edge id="gneE4" from="gneJ2" to="gneJ4" priority="-1">
        <lane id="gneE4_0" index="0" speed="13.89" length="379.20" shape="210.40,192.00 589.60,192.00"/>
        <lane id="gneE4_1" index="1" speed="13.89" length="379.20" shape="210.40,195.20 589.60,195.20"/>
        <lane id="gneE4_2" index="2" speed="13.89" length="379.20" shape="210.40,198.40 589.60,198.40"/>
    </edge>
    <edge id="gneE5" from="gneJ4" to="gneJ2" priority="-1">
        <lane id="gneE5_0" index="0" speed="13.89" length="379.20" shape="589.60,208.00 210.40,208.00"/>
        <lane id="gneE5_1" index="1" speed="13.89" length="379.20" shape="589.60,204.80 210.40,204.80"/>
        <lane id="gneE5_2" index="2" speed="13.89" length="379.20" shape="589.60,201.60 210.40,201.60"/>
    </edge>
    <edge id="gneE6" from="gneJ2" to="gneJ5" priority="-1">
        <lane id="gneE6_0" index="0" speed="13.89" length="286.40" shape="204.80,213.60 204.80,500.00"/>
        <lane id="gneE6_1" index="1" speed="13.89" length="286.40" shape="201.60,213.60 201.60,500.00"/>
    </edge>
    <edge id="gneE7" from="gneJ5" to="gneJ2" priority="-1">
        <lane id="gneE7_0" index="0" speed="13.89" length="286.40" shape="195.20,500.00 195.20,213.60"/>
        <lane id="gneE7_1" index="1" speed="13.89" length="286.40" shape="198.40,500.00 198.40,213.60"/>
    </edge>
    <edge id="gneE8" from="gneJ4" to="gneJ7" priority="-1">
        <lane id="gneE8_0" index="0" speed="13.89" length="286.40" shape="604.80,213.60 604.80,500.00"/>
        <lane id="gneE8_1" index="1" speed="13.89" length="286.40" shape="601.60,213.60 601.60,500.00"/>
    </edge>
    <edge id="gneE9" from="gneJ7" to="gneJ4" priority="-1">
        <lane id="gneE9_0" index="0" speed="13.89" length="286.40" shape="595.20,500.00 595.20,213.60"/>
        <lane id="gneE9_1" index="1" speed="13.89" length="286.40" shape="598.40,500.00 598.40,213.60"/>
    </edge>

    <tlLogic id="gneJ2" type="static" programID="0" offset="0">
        <phase duration="38" state="GrrrGGgGrrrGGg"/>
        <phase duration="3"  state="yrrryygyrrryyg"/>
        <phase duration="6"  state="rrrrrrGrrrrrrG"/>
        <phase duration="3"  state="rrrrrryrrrrrry"/>
        <phase duration="37" state="GGGgrrrGGGgrrr"/>
        <phase duration="3"  state="yyyyrrryyyyrrr"/>
    </tlLogic>
    <tlLogic id="gneJ4" type="static" programID="0" offset="0">
        <phase duration="38" state="GrrrGGgGrrrGGg"/>
        <phase duration="3"  state="yrrryygyrrryyg"/>
        <phase duration="6"  state="rrrrrrGrrrrrrG"/>
        <phase duration="3"  state="rrrrrryrrrrrry"/>
        <phase duration="37" state="GGGgrrrGGGgrrr"/>
        <phase duration="3"  state="yyyyrrryyyyrrr"/>
    </tlLogic>

    <junction id="gneJ1" type="dead_end" x="-200.00" y="200.00" incLanes="gneE1_0 gneE1_1 gneE1_2" intLanes="" shape="-200.00,200.00 -200.00,209.60 -200.00,200.00"/>
    <junction id="gneJ2" type="traffic_light" x="200.00" y="200.00" incLanes="gneE7_0 gneE7_1 gneE5_0 gneE5_1 gneE5_2 gneE3_0 gneE3_1 gneE0_0 gneE0_1 gneE0_2" intLanes=":gneJ2_0_0 :gneJ2_1_0 :gneJ2_1_1 :gneJ2_14_0 :gneJ2_4_0 :gneJ2_5_0 :gneJ2_15_0 :gneJ2_7_0 :gneJ2_8_0 :gneJ2_8_1 :gneJ2_16_0 :gneJ2_11_0 :gneJ2_12_0 :gneJ2_17_0" shape="193.60,213.60 206.40,213.60 206.84,211.38 207.40,210.60 208.18,210.04 209.18,209.71 210.40,209.60 210.40,190.40 208.18,189.96 207.40,189.40 206.84,188.62 206.51,187.62 206.40,186.40 193.60,186.40 193.16,188.62 192.60,189.40 191.82,189.96 190.82,190.29 189.60,190.40 189.60,209.60 191.82,210.04 192.60,210.60 193.16,211.38 193.49,212.38">
        <request index="0"  response="00000000000000" foes="00000000000000" cont="0"/>
        <request index="1"  response="11100001100000" foes="11110001100000" cont="0"/>
        <request index="2"  response="11100001100000" foes="11110001100000" cont="0"/>
        <request index="3"  response="10001101100000" foes="10001101100000" cont="1"/>
        <request index="4"  response="00000000000000" foes="00001100000000" cont="0"/>
        <request index="5"  response="00000000001000" foes="10001100001110" cont="0"/>
        <request index="6"  response="01010000001000" foes="01011100001110" cont="1"/>
        <request index="7"  response="00000000000000" foes="00000000000000" cont="0"/>
        <request index="8"  response="11000001110000" foes="11000001111000" cont="0"/>
        <request index="9"  response="11000001110000" foes="11000001111000" cont="0"/>
        <request index="10" response="11000001000110" foes="11000001000110" cont="1"/>
        <request index="11" response="00000000000000" foes="00000000000110" cont="0"/>
        <request index="12" response="00010000000000" foes="00011101000110" cont="0"/>
        <request index="13" response="00010000101000" foes="00011100101110" cont="1"/>
    </junction>
    <junction id="gneJ3" type="dead_end" x="200.00" y="-100.00" incLanes="gneE2_0 gneE2_1" intLanes="" shape="200.00,-100.00 193.60,-100.00 200.00,-100.00"/>
    <junction id="gneJ4" type="traffic_light" x="600.00" y="200.00" incLanes="gneE9_0 gneE9_1 gneE13_0 gneE13_1 gneE13_2 gneE11_0 gneE11_1 gneE4_0 gneE4_1 gneE4_2" intLanes=":gneJ4_0_0 :gneJ4_1_0 :gneJ4_1_1 :gneJ4_14_0 :gneJ4_4_0 :gneJ4_5_0 :gneJ4_15_0 :gneJ4_7_0 :gneJ4_8_0 :gneJ4_8_1 :gneJ4_16_0 :gneJ4_11_0 :gneJ4_12_0 :gneJ4_17_0" shape="593.60,213.60 606.40,213.60 606.84,211.38 607.40,210.60 608.18,210.04 609.18,209.71 610.40,209.60 610.40,190.40 608.18,189.96 607.40,189.40 606.84,188.62 606.51,187.62 606.40,186.40 593.60,186.40 593.16,188.62 592.60,189.40 591.82,189.96 590.82,190.29 589.60,190.40 589.60,209.60 591.82,210.04 592.60,210.60 593.16,211.38 593.49,212.38">
        <request index="0"  response="00000000000000" foes="00000000000000" cont="0"/>
        <request index="1"  response="11100001100000" foes="11110001100000" cont="0"/>
        <request index="2"  response="11100001100000" foes="11110001100000" cont="0"/>
        <request index="3"  response="10001101100000" foes="10001101100000" cont="1"/>
        <request index="4"  response="00000000000000" foes="00001100000000" cont="0"/>
        <request index="5"  response="00000000001000" foes="10001100001110" cont="0"/>
        <request index="6"  response="01010000001000" foes="01011100001110" cont="1"/>
        <request index="7"  response="00000000000000" foes="00000000000000" cont="0"/>
        <request index="8"  response="11000001110000" foes="11000001111000" cont="0"/>
        <request index="9"  response="11000001110000" foes="11000001111000" cont="0"/>
        <request index="10" response="11000001000110" foes="11000001000110" cont="1"/>
        <request index="11" response="00000000000000" foes="00000000000110" cont="0"/>
        <request index="12" response="00010000000000" foes="00011101000110" cont="0"/>
        <request index="13" response="00010000101000" foes="00011100101110" cont="1"/>
    </junction>
    <junction id="gneJ5" type="dead_end" x="200.00" y="500.00" incLanes="gneE6_0 gneE6_1" intLanes="" shape="200.00,500.00 206.40,500.00 200.00,500.00"/>
    <junction id="gneJ7" type="dead_end" x="600.00" y="500.00" incLanes="gneE8_0 gneE8_1" intLanes="" shape="600.00,500.00 606.40,500.00 600.00,500.00"/>
    <junction id="gneJ8" type="dead_end" x="600.00" y="-100.00" incLanes="gneE10_0 gneE10_1" intLanes="" shape="600.00,-100.00 593.60,-100.00 600.00,-100.00"/>
    <junction id="gneJ9" type="dead_end" x="1100.00" y="200.00" incLanes="gneE12_0 gneE12_1 gneE12_2" intLanes="" shape="1100.00,200.00 1100.00,190.40 1100.00,200.00"/>

    <junction id=":gneJ2_14_0" type="internal" x="200.00" y="205.16" incLanes=":gneJ2_3_0 gneE3_0 gneE3_1" intLanes=":gneJ2_5_0 :gneJ2_6_0 :gneJ2_8_0 :gneJ2_8_1 :gneJ2_13_0"/>
    <junction id=":gneJ2_15_0" type="internal" x="200.93" y="196.80" incLanes=":gneJ2_6_0 gneE0_0 gneE0_1" intLanes=":gneJ2_1_0 :gneJ2_1_1 :gneJ2_3_0 :gneJ2_8_0 :gneJ2_8_1 :gneJ2_10_0 :gneJ2_11_0 :gneJ2_12_0"/>
    <junction id=":gneJ2_16_0" type="internal" x="200.00" y="194.84" incLanes=":gneJ2_10_0 gneE7_0 gneE7_1" intLanes=":gneJ2_1_0 :gneJ2_1_1 :gneJ2_6_0 :gneJ2_12_0 :gneJ2_13_0"/>
    <junction id=":gneJ2_17_0" type="internal" x="199.07" y="203.20" incLanes=":gneJ2_13_0 gneE5_0 gneE5_1" intLanes=":gneJ2_1_0 :gneJ2_1_1 :gneJ2_3_0 :gneJ2_4_0 :gneJ2_5_0 :gneJ2_8_0 :gneJ2_8_1 :gneJ2_10_0"/>
    <junction id=":gneJ4_14_0" type="internal" x="600.00" y="205.16" incLanes=":gneJ4_3_0 gneE11_0 gneE11_1" intLanes=":gneJ4_5_0 :gneJ4_6_0 :gneJ4_8_0 :gneJ4_8_1 :gneJ4_13_0"/>
    <junction id=":gneJ4_15_0" type="internal" x="600.93" y="196.80" incLanes=":gneJ4_6_0 gneE4_0 gneE4_1" intLanes=":gneJ4_1_0 :gneJ4_1_1 :gneJ4_3_0 :gneJ4_8_0 :gneJ4_8_1 :gneJ4_10_0 :gneJ4_11_0 :gneJ4_12_0"/>
    <junction id=":gneJ4_16_0" type="internal" x="600.00" y="194.84" incLanes=":gneJ4_10_0 gneE9_0 gneE9_1" intLanes=":gneJ4_1_0 :gneJ4_1_1 :gneJ4_6_0 :gneJ4_12_0 :gneJ4_13_0"/>
    <junction id=":gneJ4_17_0" type="internal" x="599.07" y="203.20" incLanes=":gneJ4_13_0 gneE13_0 gneE13_1" intLanes=":gneJ4_1_0 :gneJ4_1_1 :gneJ4_3_0 :gneJ4_4_0 :gneJ4_5_0 :gneJ4_8_0 :gneJ4_8_1 :gneJ4_10_0"/>

    <connection from="gneE0" to="gneE2" fromLane="0" toLane="0" via=":gneJ2_11_0" tl="gneJ2" linkIndex="11" dir="r" state="O"/>
    <connection from="gneE0" to="gneE4" fromLane="1" toLane="1" via=":gneJ2_12_0" tl="gneJ2" linkIndex="12" dir="s" state="O"/>
    <connection from="gneE0" to="gneE6" fromLane="2" toLane="1" via=":gneJ2_13_0" tl="gneJ2" linkIndex="13" dir="l" state="o"/>
    <connection from="gneE11" to="gneE12" fromLane="0" toLane="0" via=":gneJ4_7_0" tl="gneJ4" linkIndex="7" dir="r" state="O"/>
    <connection from="gneE11" to="gneE8" fromLane="0" toLane="0" via=":gneJ4_8_0" tl="gneJ4" linkIndex="8" dir="s" state="o"/>
    <connection from="gneE11" to="gneE8" fromLane="1" toLane="1" via=":gneJ4_8_1" tl="gneJ4" linkIndex="9" dir="s" state="o"/>
    <connection from="gneE11" to="gneE5" fromLane="1" toLane="2" via=":gneJ4_10_0" tl="gneJ4" linkIndex="10" dir="l" state="o"/>
    <connection from="gneE13" to="gneE8" fromLane="0" toLane="0" via=":gneJ4_4_0" tl="gneJ4" linkIndex="4" dir="r" state="O"/>
    <connection from="gneE13" to="gneE5" fromLane="1" toLane="1" via=":gneJ4_5_0" tl="gneJ4" linkIndex="5" dir="s" state="O"/>
    <connection from="gneE13" to="gneE10" fromLane="2" toLane="1" via=":gneJ4_6_0" tl="gneJ4" linkIndex="6" dir="l" state="o"/>
    <connection from="gneE3" to="gneE4" fromLane="0" toLane="0" via=":gneJ2_7_0" tl="gneJ2" linkIndex="7" dir="r" state="O"/>
    <connection from="gneE3" to="gneE6" fromLane="0" toLane="0" via=":gneJ2_8_0" tl="gneJ2" linkIndex="8" dir="s" state="o"/>
    <connection from="gneE3" to="gneE6" fromLane="1" toLane="1" via=":gneJ2_8_1" tl="gneJ2" linkIndex="9" dir="s" state="o"/>
    <connection from="gneE3" to="gneE1" fromLane="1" toLane="2" via=":gneJ2_10_0" tl="gneJ2" linkIndex="10" dir="l" state="o"/>
    <connection from="gneE4" to="gneE10" fromLane="0" toLane="0" via=":gneJ4_11_0" tl="gneJ4" linkIndex="11" dir="r" state="O"/>
    <connection from="gneE4" to="gneE12" fromLane="1" toLane="1" via=":gneJ4_12_0" tl="gneJ4" linkIndex="12" dir="s" state="O"/>
    <connection from="gneE4" to="gneE8" fromLane="2" toLane="1" via=":gneJ4_13_0" tl="gneJ4" linkIndex="13" dir="l" state="o"/>
    <connection from="gneE5" to="gneE6" fromLane="0" toLane="0" via=":gneJ2_4_0" tl="gneJ2" linkIndex="4" dir="r" state="O"/>
    <connection from="gneE5" to="gneE1" fromLane="1" toLane="1" via=":gneJ2_5_0" tl="gneJ2" linkIndex="5" dir="s" state="O"/>
    <connection from="gneE5" to="gneE2" fromLane="2" toLane="1" via=":gneJ2_6_0" tl="gneJ2" linkIndex="6" dir="l" state="o"/>
    <connection from="gneE7" to="gneE1" fromLane="0" toLane="0" via=":gneJ2_0_0" tl="gneJ2" linkIndex="0" dir="r" state="O"/>
    <connection from="gneE7" to="gneE2" fromLane="0" toLane="0" via=":gneJ2_1_0" tl="gneJ2" linkIndex="1" dir="s" state="o"/>
    <connection from="gneE7" to="gneE2" fromLane="1" toLane="1" via=":gneJ2_1_1" tl="gneJ2" linkIndex="2" dir="s" state="o"/>
    <connection from="gneE7" to="gneE4" fromLane="1" toLane="2" via=":gneJ2_3_0" tl="gneJ2" linkIndex="3" dir="l" state="o"/>
    <connection from="gneE9" to="gneE5" fromLane="0" toLane="0" via=":gneJ4_0_0" tl="gneJ4" linkIndex="0" dir="r" state="O"/>
    <connection from="gneE9" to="gneE10" fromLane="0" toLane="0" via=":gneJ4_1_0" tl="gneJ4" linkIndex="1" dir="s" state="o"/>
    <connection from="gneE9" to="gneE10" fromLane="1" toLane="1" via=":gneJ4_1_1" tl="gneJ4" linkIndex="2" dir="s" state="o"/>
    <connection from="gneE9" to="gneE12" fromLane="1" toLane="2" via=":gneJ4_3_0" tl="gneJ4" linkIndex="3" dir="l" state="o"/>

    <connection from=":gneJ2_0" to="gneE1" fromLane="0" toLane="0" dir="r" state="M"/>
    <connection from=":gneJ2_1" to="gneE2" fromLane="0" toLane="0" dir="s" state="M"/>
    <connection from=":gneJ2_1" to="gneE2" fromLane="1" toLane="1" dir="s" state="M"/>
    <connection from=":gneJ2_3" to="gneE4" fromLane="0" toLane="2" via=":gneJ2_14_0" dir="l" state="m"/>
    <connection from=":gneJ2_14" to="gneE4" fromLane="0" toLane="2" dir="l" state="M"/>
    <connection from=":gneJ2_4" to="gneE6" fromLane="0" toLane="0" dir="r" state="M"/>
    <connection from=":gneJ2_5" to="gneE1" fromLane="0" toLane="1" dir="s" state="M"/>
    <connection from=":gneJ2_6" to="gneE2" fromLane="0" toLane="1" via=":gneJ2_15_0" dir="l" state="m"/>
    <connection from=":gneJ2_15" to="gneE2" fromLane="0" toLane="1" dir="l" state="M"/>
    <connection from=":gneJ2_7" to="gneE4" fromLane="0" toLane="0" dir="r" state="M"/>
    <connection from=":gneJ2_8" to="gneE6" fromLane="0" toLane="0" dir="s" state="M"/>
    <connection from=":gneJ2_8" to="gneE6" fromLane="1" toLane="1" dir="s" state="M"/>
    <connection from=":gneJ2_10" to="gneE1" fromLane="0" toLane="2" via=":gneJ2_16_0" dir="l" state="m"/>
    <connection from=":gneJ2_16" to="gneE1" fromLane="0" toLane="2" dir="l" state="M"/>
    <connection from=":gneJ2_11" to="gneE2" fromLane="0" toLane="0" dir="r" state="M"/>
    <connection from=":gneJ2_12" to="gneE4" fromLane="0" toLane="1" dir="s" state="M"/>
    <connection from=":gneJ2_13" to="gneE6" fromLane="0" toLane="1" via=":gneJ2_17_0" dir="l" state="m"/>
    <connection from=":gneJ2_17" to="gneE6" fromLane="0" toLane="1" dir="l" state="M"/>
    <connection from=":gneJ4_0" to="gneE5" fromLane="0" toLane="0" dir="r" state="M"/>
    <connection from=":gneJ4_1" to="gneE10" fromLane="0" toLane="0" dir="s" state="M"/>
    <connection from=":gneJ4_1" to="gneE10" fromLane="1" toLane="1" dir="s" state="M"/>
    <connection from=":gneJ4_3" to="gneE12" fromLane="0" toLane="2" via=":gneJ4_14_0" dir="l" state="m"/>
    <connection from=":gneJ4_14" to="gneE12" fromLane="0" toLane="2" dir="l" state="M"/>
    <connection from=":gneJ4_4" to="gneE8" fromLane="0" toLane="0" dir="r" state="M"/>
    <connection from=":gneJ4_5" to="gneE5" fromLane="0" toLane="1" dir="s" state="M"/>
    <connection from=":gneJ4_6" to="gneE10" fromLane="0" toLane="1" via=":gneJ4_15_0" dir="l" state="m"/>
    <connection from=":gneJ4_15" to="gneE10" fromLane="0" toLane="1" dir="l" state="M"/>
    <connection from=":gneJ4_7" to="gneE12" fromLane="0" toLane="0" dir="r" state="M"/>
    <connection from=":gneJ4_8" to="gneE8" fromLane="0" toLane="0" dir="s" state="M"/>
    <connection from=":gneJ4_8" to="gneE8" fromLane="1" toLane="1" dir="s" state="M"/>
    <connection from=":gneJ4_10" to="gneE5" fromLane="0" toLane="2" via=":gneJ4_16_0" dir="l" state="m"/>
    <connection from=":gneJ4_16" to="gneE5" fromLane="0" toLane="2" dir="l" state="M"/>
    <connection from=":gneJ4_11" to="gneE10" fromLane="0" toLane="0" dir="r" state="M"/>
    <connection from=":gneJ4_12" to="gneE12" fromLane="0" toLane="1" dir="s" state="M"/>
    <connection from=":gneJ4_13" to="gneE8" fromLane="0" toLane="1" via=":gneJ4_17_0" dir="l" state="m"/>
    <connection from=":gneJ4_17" to="gneE8" fromLane="0" toLane="1" dir="l" state="M"/>

</net>
