<routes>

<interval begin="0" end="899">

    <flow id="shoutinanlu_north_T2"         from="E10" departLane="best" vehsPerHour="359" type="vtd_shoutinanlu_north"/><!--首体南路-北进口-车辆构成-->
    <flow id="chegongzhuangxilu_west_T2"    from="E8" departLane="best" vehsPerHour="145" type="vtd_chegongzhuangxilu_west"/><!--车公庄西路口-西进口-车辆构成-->
    <flow id="chegongzhuangxilu_east_T2"    from="E3"  departLane="best" vehsPerHour="325" type="vtd_chegongzhuangxilu_east"/><!--车公庄西路口-东进口-车辆构成-->
    <flow id="zengguanglu_west_T2"          from="E23" departLane="best" vehsPerHour="71" type="vtd_zengguanglu_west"/><!--增光路口-西进口-车辆构成-->
    <flow id="zengguanglu_east_T2"          from="E19"  departLane="best" vehsPerHour="120" type="vtd_zengguanglu_east"/><!--增光路口-东进口-车辆构成-->
    <flow id="fuchenglu_west_T2"            from="E37" departLane="best" vehsPerHour="207" type="vtd_fuchenglu_west"/><!--阜成路口-西进口-车辆构成-->
    <flow id="fuchenglu_east_T2"            from="E33"  departLane="best" vehsPerHour="247" type="vtd_fuchenglu_east"/><!--阜成路口-东进口-车辆构成-->

</interval>

<interval begin="900" end="1799">

    <flow id="shoutinanlu_north_T3"         from="E10" departLane="best" vehsPerHour="376" type="vtd_shoutinanlu_north"/><!--首体南路-北进口-车辆构成-->
    <flow id="chegongzhuangxilu_west_T3"    from="E8" departLane="best" vehsPerHour="146" type="vtd_chegongzhuangxilu_west"/><!--车公庄西路口-西进口-车辆构成-->
    <flow id="chegongzhuangxilu_east_T3"    from="E3"  departLane="best" vehsPerHour="323" type="vtd_chegongzhuangxilu_east"/><!--车公庄西路口-东进口-车辆构成-->
    <flow id="zengguanglu_west_T3"          from="E23" departLane="best" vehsPerHour="80" type="vtd_zengguanglu_west"/><!--增光路口-西进口-车辆构成-->
    <flow id="zengguanglu_east_T3"          from="E19"  departLane="best" vehsPerHour="128" type="vtd_zengguanglu_east"/><!--增光路口-东进口-车辆构成-->
    <flow id="fuchenglu_west_T3"            from="E37" departLane="best" vehsPerHour="204" type="vtd_fuchenglu_west"/><!--阜成路口-西进口-车辆构成-->
    <flow id="fuchenglu_east_T3"            from="E33"  departLane="best" vehsPerHour="278" type="vtd_fuchenglu_east"/><!--阜成路口-东进口-车辆构成-->


</interval>

<interval begin="1800" end="2699">

    <flow id="shoutinanlu_north_T1"         from="E10" departLane="best" vehsPerHour="365" type="vtd_shoutinanlu_north"/><!--首体南路-北进口-车辆构成-->
    <flow id="chegongzhuangxilu_west_T1"    from="E8" departLane="best" vehsPerHour="140" type="vtd_chegongzhuangxilu_west"/><!--车公庄西路口-西进口-车辆构成-->
    <flow id="chegongzhuangxilu_east_T1"    from="E3"  departLane="best" vehsPerHour="330" type="vtd_chegongzhuangxilu_east"/><!--车公庄西路口-东进口-车辆构成-->
    <flow id="zengguanglu_west_T1"          from="E23" departLane="best" vehsPerHour="77" type="vtd_zengguanglu_west"/><!--增光路口-西进口-车辆构成-->
    <flow id="zengguanglu_east_T1"          from="E19"  departLane="best" vehsPerHour="121" type="vtd_zengguanglu_east"/><!--增光路口-东进口-车辆构成-->
    <flow id="fuchenglu_west_T1"            from="E37" departLane="best" vehsPerHour="216" type="vtd_fuchenglu_west"/><!--阜成路口-西进口-车辆构成-->
    <flow id="fuchenglu_east_T1"            from="E33"  departLane="best" vehsPerHour="275" type="vtd_fuchenglu_east"/><!--阜成路口-东进口-车辆构成-->

</interval>

<interval begin="2700" end="3599">

    <flow id="shoutinanlu_north_T4"         from="E10" departLane="best" vehsPerHour="363" type="vtd_shoutinanlu_north"/><!--首体南路-北进口-车辆构成-->
    <flow id="chegongzhuangxilu_west_T4"    from="E8" departLane="best" vehsPerHour="153" type="vtd_chegongzhuangxilu_west"/><!--车公庄西路口-西进口-车辆构成-->
    <flow id="chegongzhuangxilu_east_T4"    from="E3"  departLane="best" vehsPerHour="327" type="vtd_chegongzhuangxilu_east"/><!--车公庄西路口-东进口-车辆构成-->
    <flow id="zengguanglu_west_T4"          from="E23" departLane="best" vehsPerHour="89" type="vtd_zengguanglu_west"/><!--增光路口-西进口-车辆构成-->
    <flow id="zengguanglu_east_T4"          from="E19"  departLane="best" vehsPerHour="137" type="vtd_zengguanglu_east"/><!--增光路口-东进口-车辆构成-->
    <flow id="fuchenglu_west_T4"            from="E37" departLane="best" vehsPerHour="202" type="vtd_fuchenglu_west"/><!--阜成路口-西进口-车辆构成-->
    <flow id="fuchenglu_east_T4"            from="E33"  departLane="best" vehsPerHour="293" type="vtd_fuchenglu_east"/><!--阜成路口-东进口-车辆构成-->

</interval>
</routes>
