<?xml version="1.0" encoding="UTF-8"?>

<configuration>
    <input>
        <net-file value="test.net.xml"/>
        <route-files value="test.rou.xml"/>
        <gui-settings-file value="viewsettings.xml"/>
        <additional-files value="add.E2.xml"/>
    </input>
    <output>
        <write-license value="true"/>
        <!--summary-output value="output-summary.xml"/-->
        <device.emissions.period value="100"/>
        <emission-output value="emission.xml"/>
        <queue-output value="queue.xml"/>
        <summary value="summary2.xml"/>
        <output-prefix value="OUTPUT-"/>
    </output>
    <time>
        <begin value="0"/>
        <end value="3600"/>
    </time>
    <processing>
        <default.speeddev value="0"/>
    </processing>
    <report>
        <duration-log.disable value="true"/>
        <no-step-log value="true"/>
    </report>
</configuration>
