<?xml version="1.0" encoding="UTF-8"?>

<!-- generated on 2022-10-08 17:38:44 by Eclipse SUMO netedit Version 1.13.0
<configuration xmlns:xsi="http://www.w3.org/2001/XMLSchema-instance" xsi:noNamespaceSchemaLocation="http://sumo.dlr.de/xsd/netconvertConfiguration.xsd">

    <input>
        <sumo-net-file value="E:\gennet\test\test(jtr)\test.net.xml"/>
    </input>

    <output>
        <output-file value="E:\gennet\test\test(jtr)\test.net.xml"/>
    </output>

    <processing>
        <geometry.min-radius.fix.railways value="false"/>
        <geometry.max-grade.fix value="false"/>
        <offset.disable-normalization value="true"/>
        <lefthand value="false"/>
    </processing>

    <junctions>
        <no-turnarounds value="true"/>
        <junctions.corner-detail value="5"/>
        <junctions.limit-turn-speed value="5.5"/>
        <rectangular-lane-cut value="false"/>
    </junctions>

    <pedestrian>
        <walkingareas value="false"/>
    </pedestrian>

    <report>
        <aggregate-warnings value="5"/>
    </report>

</configuration>
-->

<net version="1.9" junctionCornerDetail="5" limitTurnSpeed="5.50" xmlns:xsi="http://www.w3.org/2001/XMLSchema-instance" xsi:noNamespaceSchemaLocation="http://sumo.dlr.de/xsd/net_file.xsd">

    <location netOffset="0.00,0.00" convBoundary="-169.01,-57.17,50.67,84.76" origBoundary="-10000000000.00,-10000000000.00,10000000000.00,10000000000.00" projParameter="!"/>

    <edge id=":J7_0" function="internal">
        <lane id=":J7_0_0" index="0" speed="9.89" length="17.61" shape="-55.02,30.90 -59.44,29.32 -63.57,29.26 -67.44,30.72 -71.02,33.69"/>
    </edge>
    <edge id=":J7_1" function="internal">
        <lane id=":J7_1_0" index="0" speed="13.89" length="32.70" shape="-55.02,30.90 -83.97,15.48"/>
        <lane id=":J7_1_1" index="1" speed="13.89" length="32.70" shape="-53.56,28.05 -82.42,12.68"/>
        <lane id=":J7_1_2" index="2" speed="13.89" length="32.70" shape="-52.10,25.21 -80.87,9.88"/>
    </edge>
    <edge id=":J7_4" function="internal">
        <lane id=":J7_4_0" index="0" speed="10.09" length="27.53" shape="-52.10,25.21 -58.49,20.67 -61.32,15.46 -60.60,9.58 -56.31,3.02"/>
    </edge>
    <edge id=":J7_5" function="internal">
        <lane id=":J7_5_0" index="0" speed="6.04" length="9.07" shape="-49.10,9.35 -50.51,11.52 -50.75,13.46 -49.82,15.17 -47.71,16.67"/>
    </edge>
    <edge id=":J7_6" function="internal">
        <lane id=":J7_6_0" index="0" speed="13.89" length="32.67" shape="-49.10,9.35 -71.02,33.69"/>
        <lane id=":J7_6_1" index="1" speed="13.89" length="32.67" shape="-51.51,7.24 -73.37,31.52"/>
        <lane id=":J7_6_2" index="2" speed="13.89" length="32.67" shape="-53.91,5.13 -75.72,29.35"/>
    </edge>
    <edge id=":J7_9" function="internal">
        <lane id=":J7_9_0" index="0" speed="12.46" length="29.95" shape="-53.91,5.13 -59.95,10.39 -66.46,12.93 -73.43,12.76 -80.87,9.88"/>
    </edge>
    <edge id=":J7_10" function="internal">
        <lane id=":J7_10_0" index="0" speed="9.43" length="16.79" shape="-76.23,1.47 -72.07,3.08 -68.16,3.17 -64.51,1.74 -61.12,-1.21"/>
    </edge>
    <edge id=":J7_11" function="internal">
        <lane id=":J7_11_0" index="0" speed="13.89" length="32.41" shape="-76.23,1.47 -47.71,16.67"/>
        <lane id=":J7_11_1" index="1" speed="13.89" length="32.41" shape="-77.78,4.27 -49.17,19.51"/>
        <lane id=":J7_11_2" index="2" speed="13.89" length="32.41" shape="-79.33,7.07 -50.64,22.36"/>
    </edge>
    <edge id=":J7_14" function="internal">
        <lane id=":J7_14_0" index="0" speed="10.09" length="27.45" shape="-79.33,7.07 -73.10,11.78 -70.42,17.06 -71.30,22.92 -75.72,29.35"/>
    </edge>
    <edge id=":J7_15" function="internal">
        <lane id=":J7_15_0" index="0" speed="6.05" length="9.07" shape="-82.78,22.84 -81.32,20.71 -81.03,18.78 -81.91,17.03 -83.97,15.48"/>
    </edge>
    <edge id=":J7_16" function="internal">
        <lane id=":J7_16_0" index="0" speed="13.89" length="32.44" shape="-82.78,22.84 -61.12,-1.21"/>
        <lane id=":J7_16_1" index="1" speed="13.89" length="32.44" shape="-80.43,25.01 -58.72,0.91"/>
        <lane id=":J7_16_2" index="2" speed="13.89" length="32.44" shape="-78.08,27.18 -56.31,3.02"/>
    </edge>
    <edge id=":J7_19" function="internal">
        <lane id=":J7_19_0" index="0" speed="12.83" length="30.21" shape="-78.08,27.18 -71.92,22.07 -65.29,19.56 -58.20,19.66 -50.64,22.36"/>
    </edge>

    <edge id="-E6" from="J2" to="J7" priority="-1" length="200.00">
        <lane id="-E6_0" index="0" speed="13.89" length="200.00" shape="47.02,83.30 -55.02,30.90"/>
        <lane id="-E6_1" index="1" speed="13.89" length="200.00" shape="48.48,80.45 -53.56,28.05"/>
        <lane id="-E6_2" index="2" speed="13.89" length="200.00" shape="49.94,77.60 -52.10,25.21"/>
    </edge>
    <edge id="-E7" from="J6" to="J7" priority="-1" length="200.00">
        <lane id="-E7_0" index="0" speed="13.89" length="200.00" shape="4.71,-51.89 -49.10,9.35"/>
        <lane id="-E7_1" index="1" speed="13.89" length="200.00" shape="2.31,-54.00 -51.51,7.24"/>
        <lane id="-E7_2" index="2" speed="13.89" length="200.00" shape="-0.10,-56.11 -53.91,5.13"/>
    </edge>
    <edge id="-E8" from="J8" to="J7" priority="-1" length="200.00">
        <lane id="-E8_0" index="0" speed="13.89" length="200.00" shape="-165.14,-47.64 -76.23,1.47"/>
        <lane id="-E8_1" index="1" speed="13.89" length="200.00" shape="-166.69,-44.84 -77.78,4.27"/>
        <lane id="-E8_2" index="2" speed="13.89" length="200.00" shape="-168.24,-42.04 -79.33,7.07"/>
    </edge>
    <edge id="-E9" from="J4" to="J7" priority="-1" length="200.00">
        <lane id="-E9_0" index="0" speed="13.89" length="200.00" shape="-134.95,79.33 -82.78,22.84"/>
        <lane id="-E9_1" index="1" speed="13.89" length="200.00" shape="-132.60,81.50 -80.43,25.01"/>
        <lane id="-E9_2" index="2" speed="13.89" length="200.00" shape="-130.25,83.67 -78.08,27.18"/>
    </edge>
    <edge id="E6" from="J7" to="J2" priority="-1" length="200.00">
        <lane id="E6_0" index="0" speed="13.89" length="200.00" shape="-47.71,16.67 54.32,69.06"/>
        <lane id="E6_1" index="1" speed="13.89" length="200.00" shape="-49.17,19.51 52.86,71.91"/>
        <lane id="E6_2" index="2" speed="13.89" length="200.00" shape="-50.64,22.36 51.40,74.76"/>
    </edge>
    <edge id="E7" from="J7" to="J6" priority="-1" length="200.00">
        <lane id="E7_0" index="0" speed="13.89" length="200.00" shape="-61.12,-1.21 -7.31,-62.45"/>
        <lane id="E7_1" index="1" speed="13.89" length="200.00" shape="-58.72,0.91 -4.91,-60.34"/>
        <lane id="E7_2" index="2" speed="13.89" length="200.00" shape="-56.31,3.02 -2.50,-58.23"/>
    </edge>
    <edge id="E8" from="J7" to="J8" priority="-1" length="200.00">
        <lane id="E8_0" index="0" speed="13.89" length="200.00" shape="-83.97,15.48 -172.88,-33.64"/>
        <lane id="E8_1" index="1" speed="13.89" length="200.00" shape="-82.42,12.68 -171.33,-36.44"/>
        <lane id="E8_2" index="2" speed="13.89" length="200.00" shape="-80.87,9.88 -169.78,-39.24"/>
    </edge>
    <edge id="E9" from="J7" to="J4" priority="-1" length="200.00">
        <lane id="E9_0" index="0" speed="13.89" length="200.00" shape="-71.02,33.69 -123.19,90.19"/>
        <lane id="E9_1" index="1" speed="13.89" length="200.00" shape="-73.37,31.52 -125.54,88.02"/>
        <lane id="E9_2" index="2" speed="13.89" length="200.00" shape="-75.72,29.35 -127.89,85.85"/>
    </edge>

    <tlLogic id="J7" type="static" programID="0" offset="0">
        <phase duration="33" state="rrrrrgGGGrrrrrrgGGGr"/>
        <phase duration="3"  state="rrrrrgyyyrrrrrrgyyyr"/>
        <phase duration="1"  state="rrrrrgrrrrrrrrrgrrrr"/>
        <phase duration="16" state="rrrrrgrrrGrrrrrgrrrG"/>
        <phase duration="3"  state="rrrrrgrrryrrrrrgrrry"/>
        <phase duration="1"  state="rrrrrGrrrrrrrrrGrrrr"/>
        <phase duration="33" state="gGGGrrrrrrgGGGrrrrrr"/>
        <phase duration="3"  state="gyyyrrrrrrgyyyrrrrrr"/>
        <phase duration="1"  state="grrrrrrrrrgrrrrrrrrr"/>
        <phase duration="16" state="grrrgrrrrrgrrrgrrrrr"/>
        <phase duration="3"  state="grrryrrrrrgrrryrrrrr"/>
        <phase duration="1"  state="grrrrrrrrrgrrrrrrrrr"/>
    </tlLogic>

    <junction id="J2" type="dead_end" x="50.67" y="76.18" incLanes="E6_0 E6_1 E6_2" intLanes="" shape="50.67,76.18 55.06,67.64 50.67,76.18"/>
    <junction id="J4" type="dead_end" x="-129.07" y="84.76" incLanes="E9_0 E9_1 E9_2" intLanes="" shape="-129.07,84.76 -122.02,91.27 -129.07,84.76"/>
    <junction id="J6" type="dead_end" x="-1.30" y="-57.17" incLanes="E7_0 E7_1 E7_2" intLanes="" shape="-1.30,-57.17 -8.51,-63.51 -1.30,-57.17"/>
    <junction id="J7" type="traffic_light" x="-65.88" y="16.33" incLanes="-E6_0 -E6_1 -E6_2 -E7_0 -E7_1 -E7_2 -E8_0 -E8_1 -E8_2 -E9_0 -E9_1 -E9_2" intLanes=":J7_0_0 :J7_1_0 :J7_1_1 :J7_1_2 :J7_4_0 :J7_5_0 :J7_6_0 :J7_6_1 :J7_6_2 :J7_9_0 :J7_10_0 :J7_11_0 :J7_11_1 :J7_11_2 :J7_14_0 :J7_15_0 :J7_16_0 :J7_16_1 :J7_16_2 :J7_19_0" shape="-55.75,32.32 -46.98,15.24 -48.67,13.89 -48.99,13.12 -48.97,12.28 -48.61,11.38 -47.90,10.41 -62.32,-2.26 -64.26,-0.40 -66.30,0.87 -68.44,1.55 -70.68,1.64 -73.02,1.15 -75.46,0.07 -84.74,16.88 -83.10,18.28 -82.79,19.06 -82.83,19.90 -83.22,20.80 -83.95,21.75 -69.85,34.78 -67.77,32.88 -65.58,31.58 -63.29,30.88 -60.88,30.76 -58.37,31.25">
        <request index="0"  response="00000000000111000000" foes="00000000000111000000" cont="0"/>
        <request index="1"  response="11111000001111000000" foes="11111100001111000000" cont="0"/>
        <request index="2"  response="11111000001111000000" foes="11111100001111000000" cont="0"/>
        <request index="3"  response="11111000001111000000" foes="11111100001111000000" cont="0"/>
        <request index="4"  response="11110011101111000000" foes="11110011101111000000" cont="0"/>
        <request index="5"  response="00000000000000000000" foes="00000011100000000000" cont="0"/>
        <request index="6"  response="00000000000000000000" foes="10000111100000011111" cont="0"/>
        <request index="7"  response="00000000000000000000" foes="10000111100000011111" cont="0"/>
        <request index="8"  response="00000000000000000000" foes="10000111100000011111" cont="0"/>
        <request index="9"  response="01110000000000000000" foes="01110111100000011110" cont="0"/>
        <request index="10" response="01110000000000000000" foes="01110000000000000000" cont="0"/>
        <request index="11" response="11110000001111100000" foes="11110000001111110000" cont="0"/>
        <request index="12" response="11110000001111100000" foes="11110000001111110000" cont="0"/>
        <request index="13" response="11110000001111100000" foes="11110000001111110000" cont="0"/>
        <request index="14" response="11110000001111001110" foes="11110000001111001110" cont="0"/>
        <request index="15" response="00000000000000000000" foes="00000000000000001110" cont="0"/>
        <request index="16" response="00000000000000000000" foes="00000111111000011110" cont="0"/>
        <request index="17" response="00000000000000000000" foes="00000111111000011110" cont="0"/>
        <request index="18" response="00000000000000000000" foes="00000111111000011110" cont="0"/>
        <request index="19" response="00000000000111000000" foes="00000111100111011110" cont="0"/>
    </junction>
    <junction id="J8" type="dead_end" x="-169.01" y="-40.64" incLanes="E8_0 E8_1 E8_2" intLanes="" shape="-169.01,-40.64 -173.65,-32.24 -169.01,-40.64"/>

    <connection from="-E6" to="E9" fromLane="0" toLane="0" via=":J7_0_0" tl="J7" linkIndex="0" dir="r" state="o"/>
    <connection from="-E6" to="E8" fromLane="0" toLane="0" via=":J7_1_0" tl="J7" linkIndex="1" dir="s" state="o"/>
    <connection from="-E6" to="E8" fromLane="1" toLane="1" via=":J7_1_1" tl="J7" linkIndex="2" dir="s" state="o"/>
    <connection from="-E6" to="E8" fromLane="2" toLane="2" via=":J7_1_2" tl="J7" linkIndex="3" dir="s" state="o"/>
    <connection from="-E6" to="E7" fromLane="2" toLane="2" via=":J7_4_0" tl="J7" linkIndex="4" dir="l" state="o"/>
    <connection from="-E7" to="E6" fromLane="0" toLane="0" via=":J7_5_0" tl="J7" linkIndex="5" dir="r" state="O"/>
    <connection from="-E7" to="E9" fromLane="0" toLane="0" via=":J7_6_0" tl="J7" linkIndex="6" dir="s" state="O"/>
    <connection from="-E7" to="E9" fromLane="1" toLane="1" via=":J7_6_1" tl="J7" linkIndex="7" dir="s" state="O"/>
    <connection from="-E7" to="E9" fromLane="2" toLane="2" via=":J7_6_2" tl="J7" linkIndex="8" dir="s" state="O"/>
    <connection from="-E7" to="E8" fromLane="2" toLane="2" via=":J7_9_0" tl="J7" linkIndex="9" dir="l" state="o"/>
    <connection from="-E8" to="E7" fromLane="0" toLane="0" via=":J7_10_0" tl="J7" linkIndex="10" dir="r" state="o"/>
    <connection from="-E8" to="E6" fromLane="0" toLane="0" via=":J7_11_0" tl="J7" linkIndex="11" dir="s" state="o"/>
    <connection from="-E8" to="E6" fromLane="1" toLane="1" via=":J7_11_1" tl="J7" linkIndex="12" dir="s" state="o"/>
    <connection from="-E8" to="E6" fromLane="2" toLane="2" via=":J7_11_2" tl="J7" linkIndex="13" dir="s" state="o"/>
    <connection from="-E8" to="E9" fromLane="2" toLane="2" via=":J7_14_0" tl="J7" linkIndex="14" dir="l" state="o"/>
    <connection from="-E9" to="E8" fromLane="0" toLane="0" via=":J7_15_0" tl="J7" linkIndex="15" dir="r" state="O"/>
    <connection from="-E9" to="E7" fromLane="0" toLane="0" via=":J7_16_0" tl="J7" linkIndex="16" dir="s" state="O"/>
    <connection from="-E9" to="E7" fromLane="1" toLane="1" via=":J7_16_1" tl="J7" linkIndex="17" dir="s" state="O"/>
    <connection from="-E9" to="E7" fromLane="2" toLane="2" via=":J7_16_2" tl="J7" linkIndex="18" dir="s" state="O"/>
    <connection from="-E9" to="E6" fromLane="2" toLane="2" via=":J7_19_0" tl="J7" linkIndex="19" dir="l" state="o"/>

    <connection from=":J7_0" to="E9" fromLane="0" toLane="0" dir="r" state="M"/>
    <connection from=":J7_1" to="E8" fromLane="0" toLane="0" dir="s" state="M"/>
    <connection from=":J7_1" to="E8" fromLane="1" toLane="1" dir="s" state="M"/>
    <connection from=":J7_1" to="E8" fromLane="2" toLane="2" dir="s" state="M"/>
    <connection from=":J7_4" to="E7" fromLane="0" toLane="2" dir="l" state="M"/>
    <connection from=":J7_5" to="E6" fromLane="0" toLane="0" dir="r" state="M"/>
    <connection from=":J7_6" to="E9" fromLane="0" toLane="0" dir="s" state="M"/>
    <connection from=":J7_6" to="E9" fromLane="1" toLane="1" dir="s" state="M"/>
    <connection from=":J7_6" to="E9" fromLane="2" toLane="2" dir="s" state="M"/>
    <connection from=":J7_9" to="E8" fromLane="0" toLane="2" dir="l" state="M"/>
    <connection from=":J7_10" to="E7" fromLane="0" toLane="0" dir="r" state="M"/>
    <connection from=":J7_11" to="E6" fromLane="0" toLane="0" dir="s" state="M"/>
    <connection from=":J7_11" to="E6" fromLane="1" toLane="1" dir="s" state="M"/>
    <connection from=":J7_11" to="E6" fromLane="2" toLane="2" dir="s" state="M"/>
    <connection from=":J7_14" to="E9" fromLane="0" toLane="2" dir="l" state="M"/>
    <connection from=":J7_15" to="E8" fromLane="0" toLane="0" dir="r" state="M"/>
    <connection from=":J7_16" to="E7" fromLane="0" toLane="0" dir="s" state="M"/>
    <connection from=":J7_16" to="E7" fromLane="1" toLane="1" dir="s" state="M"/>
    <connection from=":J7_16" to="E7" fromLane="2" toLane="2" dir="s" state="M"/>
    <connection from=":J7_19" to="E6" fromLane="0" toLane="2" dir="l" state="M"/>

</net>
