<?xml version="1.0" encoding="UTF-8"?>

<!-- generated on 2022-09-30 16:16:28 by Eclipse SUMO netedit Version 1.13.0
<configuration xmlns:xsi="http://www.w3.org/2001/XMLSchema-instance" xsi:noNamespaceSchemaLocation="http://sumo.dlr.de/xsd/netconvertConfiguration.xsd">

    <input>
        <sumo-net-file value="E:\gennet\test\test.net.xml"/>
    </input>

    <output>
        <output-file value="E:\gennet\test\test.net.xml"/>
    </output>

    <processing>
        <geometry.min-radius.fix.railways value="false"/>
        <geometry.max-grade.fix value="false"/>
        <offset.disable-normalization value="true"/>
        <lefthand value="false"/>
    </processing>

    <junctions>
        <no-turnarounds value="true"/>
        <junctions.corner-detail value="5"/>
        <junctions.limit-turn-speed value="5.5"/>
        <rectangular-lane-cut value="false"/>
    </junctions>

    <pedestrian>
        <walkingareas value="false"/>
    </pedestrian>

    <report>
        <aggregate-warnings value="5"/>
    </report>

</configuration>
-->

<additional xmlns:xsi="http://www.w3.org/2001/XMLSchema-instance" xsi:noNamespaceSchemaLocation="http://sumo.dlr.de/xsd/additional_file.xsd">
    <tlLogic id="J7" type="static" programID="0" offset="0">
        <phase duration="33" state="rrrrrgGGGrrrrrrgGGGr"/>
        <phase duration="3" state="rrrrrgyyyrrrrrrgyyyr"/>
        <phase duration="1" state="rrrrrgrrrrrrrrrgrrrr"/>
        <phase duration="16" state="rrrrrgrrrGrrrrrgrrrG"/>
        <phase duration="3" state="rrrrrgrrryrrrrrgrrry"/>
        <phase duration="1" state="rrrrrGrrrrrrrrrGrrrr"/>
        <phase duration="33" state="gGGGrrrrrrgGGGrrrrrr"/>
        <phase duration="3" state="gyyyrrrrrrgyyyrrrrrr"/>
        <phase duration="1" state="grrrrrrrrrgrrrrrrrrr"/>
        <phase duration="16" state="grrrgrrrrrgrrrgrrrrr"/>
        <phase duration="3" state="grrryrrrrrgrrryrrrrr"/>
        <phase duration="1" state="grrrrrrrrrgrrrrrrrrr"/>
    </tlLogic>
</additional>
