<?xml version="1.0" encoding="UTF-8"?>

<!-- generated on 2022-10-10 21:05:17 by Eclipse SUMO jtrrouter Version 1.13.0
<configuration xmlns:xsi="http://www.w3.org/2001/XMLSchema-instance" xsi:noNamespaceSchemaLocation="http://sumo.dlr.de/xsd/jtrrouterConfiguration.xsd">

    <input>
        <net-file value="test.net.xml"/>
        <route-files value="test.flows.xml"/>
        <turn-ratio-files value="test.turns.xml"/>
    </input>

    <output>
        <output-file value="test.rou.xml"/>
    </output>

    <processing>
        <no-internal-links value="true"/>
        <accept-all-destinations value="true"/>
    </processing>

</configuration>
-->

<routes xmlns:xsi="http://www.w3.org/2001/XMLSchema-instance" xsi:noNamespaceSchemaLocation="http://sumo.dlr.de/xsd/routes_file.xsd">
    <vehicle id="0.0" depart="0.00">
        <route edges="-E6 E8"/>
    </vehicle>
    <vehicle id="1.0" depart="0.00">
        <route edges="-E7 E9"/>
    </vehicle>
    <vehicle id="2.0" depart="0.00">
        <route edges="-E8 E6"/>
    </vehicle>
    <vehicle id="3.0" depart="0.00">
        <route edges="-E9 E7"/>
    </vehicle>
    <vehicle id="0.1" depart="1.00">
        <route edges="-E6 E8"/>
    </vehicle>
    <vehicle id="1.1" depart="1.00">
        <route edges="-E7 E6"/>
    </vehicle>
    <vehicle id="2.1" depart="1.00">
        <route edges="-E8 E7"/>
    </vehicle>
    <vehicle id="3.1" depart="1.00">
        <route edges="-E9 E6"/>
    </vehicle>
    <vehicle id="0.2" depart="2.00">
        <route edges="-E6 E8"/>
    </vehicle>
    <vehicle id="1.2" depart="2.00">
        <route edges="-E7 E9"/>
    </vehicle>
    <vehicle id="2.2" depart="2.00">
        <route edges="-E8 E6"/>
    </vehicle>
    <vehicle id="3.2" depart="2.00">
        <route edges="-E9 E7"/>
    </vehicle>
    <vehicle id="0.3" depart="3.00">
        <route edges="-E6 E8"/>
    </vehicle>
    <vehicle id="1.3" depart="3.00">
        <route edges="-E7 E8"/>
    </vehicle>
    <vehicle id="2.3" depart="3.00">
        <route edges="-E8 E7"/>
    </vehicle>
    <vehicle id="3.3" depart="3.00">
        <route edges="-E9 E6"/>
    </vehicle>
    <vehicle id="0.4" depart="4.00">
        <route edges="-E6 E7"/>
    </vehicle>
    <vehicle id="1.4" depart="4.00">
        <route edges="-E7 E9"/>
    </vehicle>
    <vehicle id="2.4" depart="4.00">
        <route edges="-E8 E6"/>
    </vehicle>
    <vehicle id="3.4" depart="4.00">
        <route edges="-E9 E7"/>
    </vehicle>
    <vehicle id="0.5" depart="5.00">
        <route edges="-E6 E7"/>
    </vehicle>
    <vehicle id="1.5" depart="5.00">
        <route edges="-E7 E9"/>
    </vehicle>
    <vehicle id="2.5" depart="5.00">
        <route edges="-E8 E6"/>
    </vehicle>
    <vehicle id="3.5" depart="5.00">
        <route edges="-E9 E7"/>
    </vehicle>
    <vehicle id="0.6" depart="6.00">
        <route edges="-E6 E9"/>
    </vehicle>
    <vehicle id="1.6" depart="6.00">
        <route edges="-E7 E9"/>
    </vehicle>
    <vehicle id="2.6" depart="6.00">
        <route edges="-E8 E9"/>
    </vehicle>
    <vehicle id="3.6" depart="6.00">
        <route edges="-E9 E6"/>
    </vehicle>
    <vehicle id="0.7" depart="7.00">
        <route edges="-E6 E8"/>
    </vehicle>
    <vehicle id="1.7" depart="7.00">
        <route edges="-E7 E8"/>
    </vehicle>
    <vehicle id="2.7" depart="7.00">
        <route edges="-E8 E6"/>
    </vehicle>
    <vehicle id="3.7" depart="7.00">
        <route edges="-E9 E6"/>
    </vehicle>
    <vehicle id="0.8" depart="8.00">
        <route edges="-E6 E8"/>
    </vehicle>
    <vehicle id="1.8" depart="8.00">
        <route edges="-E7 E6"/>
    </vehicle>
    <vehicle id="2.8" depart="8.00">
        <route edges="-E8 E9"/>
    </vehicle>
    <vehicle id="3.8" depart="8.00">
        <route edges="-E9 E6"/>
    </vehicle>
    <vehicle id="0.9" depart="9.00">
        <route edges="-E6 E8"/>
    </vehicle>
    <vehicle id="1.9" depart="9.00">
        <route edges="-E7 E8"/>
    </vehicle>
    <vehicle id="2.9" depart="9.00">
        <route edges="-E8 E6"/>
    </vehicle>
    <vehicle id="3.9" depart="9.00">
        <route edges="-E9 E6"/>
    </vehicle>
    <vehicle id="0.10" depart="10.00">
        <route edges="-E6 E8"/>
    </vehicle>
    <vehicle id="1.10" depart="10.00">
        <route edges="-E7 E9"/>
    </vehicle>
    <vehicle id="2.10" depart="10.00">
        <route edges="-E8 E6"/>
    </vehicle>
    <vehicle id="3.10" depart="10.00">
        <route edges="-E9 E6"/>
    </vehicle>
    <vehicle id="0.11" depart="11.00">
        <route edges="-E6 E7"/>
    </vehicle>
    <vehicle id="1.11" depart="11.00">
        <route edges="-E7 E9"/>
    </vehicle>
    <vehicle id="2.11" depart="11.00">
        <route edges="-E8 E6"/>
    </vehicle>
    <vehicle id="3.11" depart="11.00">
        <route edges="-E9 E7"/>
    </vehicle>
    <vehicle id="0.12" depart="12.00">
        <route edges="-E6 E7"/>
    </vehicle>
    <vehicle id="1.12" depart="12.00">
        <route edges="-E7 E9"/>
    </vehicle>
    <vehicle id="2.12" depart="12.00">
        <route edges="-E8 E7"/>
    </vehicle>
    <vehicle id="3.12" depart="12.00">
        <route edges="-E9 E7"/>
    </vehicle>
    <vehicle id="0.13" depart="13.00">
        <route edges="-E6 E8"/>
    </vehicle>
    <vehicle id="1.13" depart="13.00">
        <route edges="-E7 E9"/>
    </vehicle>
    <vehicle id="2.13" depart="13.00">
        <route edges="-E8 E9"/>
    </vehicle>
    <vehicle id="3.13" depart="13.00">
        <route edges="-E9 E6"/>
    </vehicle>
    <vehicle id="0.14" depart="14.00">
        <route edges="-E6 E8"/>
    </vehicle>
    <vehicle id="1.14" depart="14.00">
        <route edges="-E7 E9"/>
    </vehicle>
    <vehicle id="2.14" depart="14.00">
        <route edges="-E8 E6"/>
    </vehicle>
    <vehicle id="3.14" depart="14.00">
        <route edges="-E9 E8"/>
    </vehicle>
    <vehicle id="0.15" depart="15.00">
        <route edges="-E6 E7"/>
    </vehicle>
    <vehicle id="1.15" depart="15.00">
        <route edges="-E7 E9"/>
    </vehicle>
    <vehicle id="2.15" depart="15.00">
        <route edges="-E8 E6"/>
    </vehicle>
    <vehicle id="3.15" depart="15.00">
        <route edges="-E9 E6"/>
    </vehicle>
    <vehicle id="0.16" depart="16.00">
        <route edges="-E6 E8"/>
    </vehicle>
    <vehicle id="1.16" depart="16.00">
        <route edges="-E7 E9"/>
    </vehicle>
    <vehicle id="2.16" depart="16.00">
        <route edges="-E8 E9"/>
    </vehicle>
    <vehicle id="3.16" depart="16.00">
        <route edges="-E9 E6"/>
    </vehicle>
    <vehicle id="0.17" depart="17.00">
        <route edges="-E6 E7"/>
    </vehicle>
    <vehicle id="1.17" depart="17.00">
        <route edges="-E7 E9"/>
    </vehicle>
    <vehicle id="2.17" depart="17.00">
        <route edges="-E8 E6"/>
    </vehicle>
    <vehicle id="3.17" depart="17.00">
        <route edges="-E9 E6"/>
    </vehicle>
    <vehicle id="0.18" depart="18.00">
        <route edges="-E6 E7"/>
    </vehicle>
    <vehicle id="1.18" depart="18.00">
        <route edges="-E7 E9"/>
    </vehicle>
    <vehicle id="2.18" depart="18.00">
        <route edges="-E8 E6"/>
    </vehicle>
    <vehicle id="3.18" depart="18.00">
        <route edges="-E9 E6"/>
    </vehicle>
    <vehicle id="0.19" depart="19.00">
        <route edges="-E6 E7"/>
    </vehicle>
    <vehicle id="1.19" depart="19.00">
        <route edges="-E7 E6"/>
    </vehicle>
    <vehicle id="2.19" depart="19.00">
        <route edges="-E8 E7"/>
    </vehicle>
    <vehicle id="3.19" depart="19.00">
        <route edges="-E9 E6"/>
    </vehicle>
    <vehicle id="0.20" depart="20.00">
        <route edges="-E6 E8"/>
    </vehicle>
    <vehicle id="1.20" depart="20.00">
        <route edges="-E7 E8"/>
    </vehicle>
    <vehicle id="2.20" depart="20.00">
        <route edges="-E8 E7"/>
    </vehicle>
    <vehicle id="3.20" depart="20.00">
        <route edges="-E9 E7"/>
    </vehicle>
    <vehicle id="0.21" depart="21.00">
        <route edges="-E6 E8"/>
    </vehicle>
    <vehicle id="1.21" depart="21.00">
        <route edges="-E7 E8"/>
    </vehicle>
    <vehicle id="2.21" depart="21.00">
        <route edges="-E8 E7"/>
    </vehicle>
    <vehicle id="3.21" depart="21.00">
        <route edges="-E9 E7"/>
    </vehicle>
    <vehicle id="0.22" depart="22.00">
        <route edges="-E6 E8"/>
    </vehicle>
    <vehicle id="1.22" depart="22.00">
        <route edges="-E7 E8"/>
    </vehicle>
    <vehicle id="2.22" depart="22.00">
        <route edges="-E8 E6"/>
    </vehicle>
    <vehicle id="3.22" depart="22.00">
        <route edges="-E9 E8"/>
    </vehicle>
    <vehicle id="0.23" depart="23.00">
        <route edges="-E6 E7"/>
    </vehicle>
    <vehicle id="1.23" depart="23.00">
        <route edges="-E7 E8"/>
    </vehicle>
    <vehicle id="2.23" depart="23.00">
        <route edges="-E8 E6"/>
    </vehicle>
    <vehicle id="3.23" depart="23.00">
        <route edges="-E9 E7"/>
    </vehicle>
    <vehicle id="0.24" depart="24.00">
        <route edges="-E6 E8"/>
    </vehicle>
    <vehicle id="1.24" depart="24.00">
        <route edges="-E7 E9"/>
    </vehicle>
    <vehicle id="2.24" depart="24.00">
        <route edges="-E8 E6"/>
    </vehicle>
    <vehicle id="3.24" depart="24.00">
        <route edges="-E9 E7"/>
    </vehicle>
    <vehicle id="0.25" depart="25.00">
        <route edges="-E6 E8"/>
    </vehicle>
    <vehicle id="1.25" depart="25.00">
        <route edges="-E7 E8"/>
    </vehicle>
    <vehicle id="2.25" depart="25.00">
        <route edges="-E8 E9"/>
    </vehicle>
    <vehicle id="3.25" depart="25.00">
        <route edges="-E9 E7"/>
    </vehicle>
    <vehicle id="0.26" depart="26.00">
        <route edges="-E6 E9"/>
    </vehicle>
    <vehicle id="1.26" depart="26.00">
        <route edges="-E7 E8"/>
    </vehicle>
    <vehicle id="2.26" depart="26.00">
        <route edges="-E8 E6"/>
    </vehicle>
    <vehicle id="3.26" depart="26.00">
        <route edges="-E9 E6"/>
    </vehicle>
    <vehicle id="0.27" depart="27.00">
        <route edges="-E6 E8"/>
    </vehicle>
    <vehicle id="1.27" depart="27.00">
        <route edges="-E7 E6"/>
    </vehicle>
    <vehicle id="2.27" depart="27.00">
        <route edges="-E8 E6"/>
    </vehicle>
    <vehicle id="3.27" depart="27.00">
        <route edges="-E9 E7"/>
    </vehicle>
    <vehicle id="0.28" depart="28.00">
        <route edges="-E6 E8"/>
    </vehicle>
    <vehicle id="1.28" depart="28.00">
        <route edges="-E7 E8"/>
    </vehicle>
    <vehicle id="2.28" depart="28.00">
        <route edges="-E8 E7"/>
    </vehicle>
    <vehicle id="3.28" depart="28.00">
        <route edges="-E9 E6"/>
    </vehicle>
    <vehicle id="0.29" depart="29.00">
        <route edges="-E6 E8"/>
    </vehicle>
    <vehicle id="1.29" depart="29.00">
        <route edges="-E7 E6"/>
    </vehicle>
    <vehicle id="2.29" depart="29.00">
        <route edges="-E8 E9"/>
    </vehicle>
    <vehicle id="3.29" depart="29.00">
        <route edges="-E9 E6"/>
    </vehicle>
    <vehicle id="0.30" depart="30.00">
        <route edges="-E6 E8"/>
    </vehicle>
    <vehicle id="1.30" depart="30.00">
        <route edges="-E7 E6"/>
    </vehicle>
    <vehicle id="2.30" depart="30.00">
        <route edges="-E8 E6"/>
    </vehicle>
    <vehicle id="3.30" depart="30.00">
        <route edges="-E9 E7"/>
    </vehicle>
    <vehicle id="0.31" depart="31.00">
        <route edges="-E6 E9"/>
    </vehicle>
    <vehicle id="1.31" depart="31.00">
        <route edges="-E7 E9"/>
    </vehicle>
    <vehicle id="2.31" depart="31.00">
        <route edges="-E8 E6"/>
    </vehicle>
    <vehicle id="3.31" depart="31.00">
        <route edges="-E9 E8"/>
    </vehicle>
    <vehicle id="0.32" depart="32.00">
        <route edges="-E6 E8"/>
    </vehicle>
    <vehicle id="1.32" depart="32.00">
        <route edges="-E7 E9"/>
    </vehicle>
    <vehicle id="2.32" depart="32.00">
        <route edges="-E8 E6"/>
    </vehicle>
    <vehicle id="3.32" depart="32.00">
        <route edges="-E9 E7"/>
    </vehicle>
    <vehicle id="0.33" depart="33.00">
        <route edges="-E6 E8"/>
    </vehicle>
    <vehicle id="1.33" depart="33.00">
        <route edges="-E7 E8"/>
    </vehicle>
    <vehicle id="2.33" depart="33.00">
        <route edges="-E8 E7"/>
    </vehicle>
    <vehicle id="3.33" depart="33.00">
        <route edges="-E9 E7"/>
    </vehicle>
    <vehicle id="0.34" depart="34.00">
        <route edges="-E6 E8"/>
    </vehicle>
    <vehicle id="1.34" depart="34.00">
        <route edges="-E7 E6"/>
    </vehicle>
    <vehicle id="2.34" depart="34.00">
        <route edges="-E8 E9"/>
    </vehicle>
    <vehicle id="3.34" depart="34.00">
        <route edges="-E9 E7"/>
    </vehicle>
    <vehicle id="0.35" depart="35.00">
        <route edges="-E6 E8"/>
    </vehicle>
    <vehicle id="1.35" depart="35.00">
        <route edges="-E7 E9"/>
    </vehicle>
    <vehicle id="2.35" depart="35.00">
        <route edges="-E8 E7"/>
    </vehicle>
    <vehicle id="3.35" depart="35.00">
        <route edges="-E9 E6"/>
    </vehicle>
    <vehicle id="0.36" depart="36.00">
        <route edges="-E6 E9"/>
    </vehicle>
    <vehicle id="1.36" depart="36.00">
        <route edges="-E7 E9"/>
    </vehicle>
    <vehicle id="2.36" depart="36.00">
        <route edges="-E8 E6"/>
    </vehicle>
    <vehicle id="3.36" depart="36.00">
        <route edges="-E9 E8"/>
    </vehicle>
    <vehicle id="0.37" depart="37.00">
        <route edges="-E6 E7"/>
    </vehicle>
    <vehicle id="1.37" depart="37.00">
        <route edges="-E7 E8"/>
    </vehicle>
    <vehicle id="2.37" depart="37.00">
        <route edges="-E8 E7"/>
    </vehicle>
    <vehicle id="3.37" depart="37.00">
        <route edges="-E9 E7"/>
    </vehicle>
    <vehicle id="0.38" depart="38.00">
        <route edges="-E6 E8"/>
    </vehicle>
    <vehicle id="1.38" depart="38.00">
        <route edges="-E7 E6"/>
    </vehicle>
    <vehicle id="2.38" depart="38.00">
        <route edges="-E8 E7"/>
    </vehicle>
    <vehicle id="3.38" depart="38.00">
        <route edges="-E9 E8"/>
    </vehicle>
    <vehicle id="0.39" depart="39.00">
        <route edges="-E6 E7"/>
    </vehicle>
    <vehicle id="1.39" depart="39.00">
        <route edges="-E7 E8"/>
    </vehicle>
    <vehicle id="2.39" depart="39.00">
        <route edges="-E8 E9"/>
    </vehicle>
    <vehicle id="3.39" depart="39.00">
        <route edges="-E9 E7"/>
    </vehicle>
    <vehicle id="0.40" depart="40.00">
        <route edges="-E6 E7"/>
    </vehicle>
    <vehicle id="1.40" depart="40.00">
        <route edges="-E7 E9"/>
    </vehicle>
    <vehicle id="2.40" depart="40.00">
        <route edges="-E8 E9"/>
    </vehicle>
    <vehicle id="3.40" depart="40.00">
        <route edges="-E9 E6"/>
    </vehicle>
    <vehicle id="0.41" depart="41.00">
        <route edges="-E6 E9"/>
    </vehicle>
    <vehicle id="1.41" depart="41.00">
        <route edges="-E7 E8"/>
    </vehicle>
    <vehicle id="2.41" depart="41.00">
        <route edges="-E8 E9"/>
    </vehicle>
    <vehicle id="3.41" depart="41.00">
        <route edges="-E9 E7"/>
    </vehicle>
    <vehicle id="0.42" depart="42.00">
        <route edges="-E6 E8"/>
    </vehicle>
    <vehicle id="1.42" depart="42.00">
        <route edges="-E7 E9"/>
    </vehicle>
    <vehicle id="2.42" depart="42.00">
        <route edges="-E8 E6"/>
    </vehicle>
    <vehicle id="3.42" depart="42.00">
        <route edges="-E9 E6"/>
    </vehicle>
    <vehicle id="0.43" depart="43.00">
        <route edges="-E6 E7"/>
    </vehicle>
    <vehicle id="1.43" depart="43.00">
        <route edges="-E7 E8"/>
    </vehicle>
    <vehicle id="2.43" depart="43.00">
        <route edges="-E8 E6"/>
    </vehicle>
    <vehicle id="3.43" depart="43.00">
        <route edges="-E9 E7"/>
    </vehicle>
    <vehicle id="0.44" depart="44.00">
        <route edges="-E6 E8"/>
    </vehicle>
    <vehicle id="1.44" depart="44.00">
        <route edges="-E7 E8"/>
    </vehicle>
    <vehicle id="2.44" depart="44.00">
        <route edges="-E8 E9"/>
    </vehicle>
    <vehicle id="3.44" depart="44.00">
        <route edges="-E9 E6"/>
    </vehicle>
    <vehicle id="0.45" depart="45.00">
        <route edges="-E6 E8"/>
    </vehicle>
    <vehicle id="1.45" depart="45.00">
        <route edges="-E7 E6"/>
    </vehicle>
    <vehicle id="2.45" depart="45.00">
        <route edges="-E8 E7"/>
    </vehicle>
    <vehicle id="3.45" depart="45.00">
        <route edges="-E9 E6"/>
    </vehicle>
    <vehicle id="0.46" depart="46.00">
        <route edges="-E6 E7"/>
    </vehicle>
    <vehicle id="1.46" depart="46.00">
        <route edges="-E7 E8"/>
    </vehicle>
    <vehicle id="2.46" depart="46.00">
        <route edges="-E8 E6"/>
    </vehicle>
    <vehicle id="3.46" depart="46.00">
        <route edges="-E9 E6"/>
    </vehicle>
    <vehicle id="0.47" depart="47.00">
        <route edges="-E6 E9"/>
    </vehicle>
    <vehicle id="1.47" depart="47.00">
        <route edges="-E7 E8"/>
    </vehicle>
    <vehicle id="2.47" depart="47.00">
        <route edges="-E8 E6"/>
    </vehicle>
    <vehicle id="3.47" depart="47.00">
        <route edges="-E9 E7"/>
    </vehicle>
    <vehicle id="0.48" depart="48.00">
        <route edges="-E6 E8"/>
    </vehicle>
    <vehicle id="1.48" depart="48.00">
        <route edges="-E7 E6"/>
    </vehicle>
    <vehicle id="2.48" depart="48.00">
        <route edges="-E8 E6"/>
    </vehicle>
    <vehicle id="3.48" depart="48.00">
        <route edges="-E9 E8"/>
    </vehicle>
    <vehicle id="0.49" depart="49.00">
        <route edges="-E6 E8"/>
    </vehicle>
    <vehicle id="1.49" depart="49.00">
        <route edges="-E7 E9"/>
    </vehicle>
    <vehicle id="2.49" depart="49.00">
        <route edges="-E8 E7"/>
    </vehicle>
    <vehicle id="3.49" depart="49.00">
        <route edges="-E9 E7"/>
    </vehicle>
    <vehicle id="0.50" depart="50.00">
        <route edges="-E6 E8"/>
    </vehicle>
    <vehicle id="1.50" depart="50.00">
        <route edges="-E7 E6"/>
    </vehicle>
    <vehicle id="2.50" depart="50.00">
        <route edges="-E8 E7"/>
    </vehicle>
    <vehicle id="3.50" depart="50.00">
        <route edges="-E9 E6"/>
    </vehicle>
    <vehicle id="0.51" depart="51.00">
        <route edges="-E6 E8"/>
    </vehicle>
    <vehicle id="1.51" depart="51.00">
        <route edges="-E7 E9"/>
    </vehicle>
    <vehicle id="2.51" depart="51.00">
        <route edges="-E8 E7"/>
    </vehicle>
    <vehicle id="3.51" depart="51.00">
        <route edges="-E9 E6"/>
    </vehicle>
    <vehicle id="0.52" depart="52.00">
        <route edges="-E6 E8"/>
    </vehicle>
    <vehicle id="1.52" depart="52.00">
        <route edges="-E7 E6"/>
    </vehicle>
    <vehicle id="2.52" depart="52.00">
        <route edges="-E8 E7"/>
    </vehicle>
    <vehicle id="3.52" depart="52.00">
        <route edges="-E9 E6"/>
    </vehicle>
    <vehicle id="0.53" depart="53.00">
        <route edges="-E6 E8"/>
    </vehicle>
    <vehicle id="1.53" depart="53.00">
        <route edges="-E7 E9"/>
    </vehicle>
    <vehicle id="2.53" depart="53.00">
        <route edges="-E8 E7"/>
    </vehicle>
    <vehicle id="3.53" depart="53.00">
        <route edges="-E9 E7"/>
    </vehicle>
    <vehicle id="0.54" depart="54.00">
        <route edges="-E6 E7"/>
    </vehicle>
    <vehicle id="1.54" depart="54.00">
        <route edges="-E7 E9"/>
    </vehicle>
    <vehicle id="2.54" depart="54.00">
        <route edges="-E8 E6"/>
    </vehicle>
    <vehicle id="3.54" depart="54.00">
        <route edges="-E9 E6"/>
    </vehicle>
    <vehicle id="0.55" depart="55.00">
        <route edges="-E6 E8"/>
    </vehicle>
    <vehicle id="1.55" depart="55.00">
        <route edges="-E7 E6"/>
    </vehicle>
    <vehicle id="2.55" depart="55.00">
        <route edges="-E8 E7"/>
    </vehicle>
    <vehicle id="3.55" depart="55.00">
        <route edges="-E9 E6"/>
    </vehicle>
    <vehicle id="0.56" depart="56.00">
        <route edges="-E6 E8"/>
    </vehicle>
    <vehicle id="1.56" depart="56.00">
        <route edges="-E7 E9"/>
    </vehicle>
    <vehicle id="2.56" depart="56.00">
        <route edges="-E8 E9"/>
    </vehicle>
    <vehicle id="3.56" depart="56.00">
        <route edges="-E9 E6"/>
    </vehicle>
    <vehicle id="0.57" depart="57.00">
        <route edges="-E6 E9"/>
    </vehicle>
    <vehicle id="1.57" depart="57.00">
        <route edges="-E7 E8"/>
    </vehicle>
    <vehicle id="2.57" depart="57.00">
        <route edges="-E8 E6"/>
    </vehicle>
    <vehicle id="3.57" depart="57.00">
        <route edges="-E9 E6"/>
    </vehicle>
    <vehicle id="0.58" depart="58.00">
        <route edges="-E6 E8"/>
    </vehicle>
    <vehicle id="1.58" depart="58.00">
        <route edges="-E7 E8"/>
    </vehicle>
    <vehicle id="2.58" depart="58.00">
        <route edges="-E8 E6"/>
    </vehicle>
    <vehicle id="3.58" depart="58.00">
        <route edges="-E9 E7"/>
    </vehicle>
    <vehicle id="0.59" depart="59.00">
        <route edges="-E6 E8"/>
    </vehicle>
    <vehicle id="1.59" depart="59.00">
        <route edges="-E7 E8"/>
    </vehicle>
    <vehicle id="2.59" depart="59.00">
        <route edges="-E8 E9"/>
    </vehicle>
    <vehicle id="3.59" depart="59.00">
        <route edges="-E9 E6"/>
    </vehicle>
    <vehicle id="0.60" depart="60.00">
        <route edges="-E6 E7"/>
    </vehicle>
    <vehicle id="1.60" depart="60.00">
        <route edges="-E7 E8"/>
    </vehicle>
    <vehicle id="2.60" depart="60.00">
        <route edges="-E8 E7"/>
    </vehicle>
    <vehicle id="3.60" depart="60.00">
        <route edges="-E9 E6"/>
    </vehicle>
    <vehicle id="0.61" depart="61.00">
        <route edges="-E6 E7"/>
    </vehicle>
    <vehicle id="1.61" depart="61.00">
        <route edges="-E7 E6"/>
    </vehicle>
    <vehicle id="2.61" depart="61.00">
        <route edges="-E8 E9"/>
    </vehicle>
    <vehicle id="3.61" depart="61.00">
        <route edges="-E9 E6"/>
    </vehicle>
    <vehicle id="0.62" depart="62.00">
        <route edges="-E6 E8"/>
    </vehicle>
    <vehicle id="1.62" depart="62.00">
        <route edges="-E7 E8"/>
    </vehicle>
    <vehicle id="2.62" depart="62.00">
        <route edges="-E8 E6"/>
    </vehicle>
    <vehicle id="3.62" depart="62.00">
        <route edges="-E9 E7"/>
    </vehicle>
    <vehicle id="0.63" depart="63.00">
        <route edges="-E6 E8"/>
    </vehicle>
    <vehicle id="1.63" depart="63.00">
        <route edges="-E7 E9"/>
    </vehicle>
    <vehicle id="2.63" depart="63.00">
        <route edges="-E8 E7"/>
    </vehicle>
    <vehicle id="3.63" depart="63.00">
        <route edges="-E9 E7"/>
    </vehicle>
    <vehicle id="0.64" depart="64.00">
        <route edges="-E6 E8"/>
    </vehicle>
    <vehicle id="1.64" depart="64.00">
        <route edges="-E7 E9"/>
    </vehicle>
    <vehicle id="2.64" depart="64.00">
        <route edges="-E8 E6"/>
    </vehicle>
    <vehicle id="3.64" depart="64.00">
        <route edges="-E9 E6"/>
    </vehicle>
    <vehicle id="0.65" depart="65.00">
        <route edges="-E6 E8"/>
    </vehicle>
    <vehicle id="1.65" depart="65.00">
        <route edges="-E7 E9"/>
    </vehicle>
    <vehicle id="2.65" depart="65.00">
        <route edges="-E8 E6"/>
    </vehicle>
    <vehicle id="3.65" depart="65.00">
        <route edges="-E9 E6"/>
    </vehicle>
    <vehicle id="0.66" depart="66.00">
        <route edges="-E6 E8"/>
    </vehicle>
    <vehicle id="1.66" depart="66.00">
        <route edges="-E7 E8"/>
    </vehicle>
    <vehicle id="2.66" depart="66.00">
        <route edges="-E8 E7"/>
    </vehicle>
    <vehicle id="3.66" depart="66.00">
        <route edges="-E9 E6"/>
    </vehicle>
    <vehicle id="0.67" depart="67.00">
        <route edges="-E6 E9"/>
    </vehicle>
    <vehicle id="1.67" depart="67.00">
        <route edges="-E7 E9"/>
    </vehicle>
    <vehicle id="2.67" depart="67.00">
        <route edges="-E8 E7"/>
    </vehicle>
    <vehicle id="3.67" depart="67.00">
        <route edges="-E9 E6"/>
    </vehicle>
    <vehicle id="0.68" depart="68.00">
        <route edges="-E6 E9"/>
    </vehicle>
    <vehicle id="1.68" depart="68.00">
        <route edges="-E7 E9"/>
    </vehicle>
    <vehicle id="2.68" depart="68.00">
        <route edges="-E8 E6"/>
    </vehicle>
    <vehicle id="3.68" depart="68.00">
        <route edges="-E9 E6"/>
    </vehicle>
    <vehicle id="0.69" depart="69.00">
        <route edges="-E6 E9"/>
    </vehicle>
    <vehicle id="1.69" depart="69.00">
        <route edges="-E7 E9"/>
    </vehicle>
    <vehicle id="2.69" depart="69.00">
        <route edges="-E8 E7"/>
    </vehicle>
    <vehicle id="3.69" depart="69.00">
        <route edges="-E9 E7"/>
    </vehicle>
    <vehicle id="0.70" depart="70.00">
        <route edges="-E6 E7"/>
    </vehicle>
    <vehicle id="1.70" depart="70.00">
        <route edges="-E7 E9"/>
    </vehicle>
    <vehicle id="2.70" depart="70.00">
        <route edges="-E8 E6"/>
    </vehicle>
    <vehicle id="3.70" depart="70.00">
        <route edges="-E9 E6"/>
    </vehicle>
    <vehicle id="0.71" depart="71.00">
        <route edges="-E6 E7"/>
    </vehicle>
    <vehicle id="1.71" depart="71.00">
        <route edges="-E7 E9"/>
    </vehicle>
    <vehicle id="2.71" depart="71.00">
        <route edges="-E8 E9"/>
    </vehicle>
    <vehicle id="3.71" depart="71.00">
        <route edges="-E9 E7"/>
    </vehicle>
    <vehicle id="0.72" depart="72.00">
        <route edges="-E6 E9"/>
    </vehicle>
    <vehicle id="1.72" depart="72.00">
        <route edges="-E7 E8"/>
    </vehicle>
    <vehicle id="2.72" depart="72.00">
        <route edges="-E8 E9"/>
    </vehicle>
    <vehicle id="3.72" depart="72.00">
        <route edges="-E9 E7"/>
    </vehicle>
    <vehicle id="0.73" depart="73.00">
        <route edges="-E6 E8"/>
    </vehicle>
    <vehicle id="1.73" depart="73.00">
        <route edges="-E7 E8"/>
    </vehicle>
    <vehicle id="2.73" depart="73.00">
        <route edges="-E8 E9"/>
    </vehicle>
    <vehicle id="3.73" depart="73.00">
        <route edges="-E9 E8"/>
    </vehicle>
    <vehicle id="0.74" depart="74.00">
        <route edges="-E6 E8"/>
    </vehicle>
    <vehicle id="1.74" depart="74.00">
        <route edges="-E7 E9"/>
    </vehicle>
    <vehicle id="2.74" depart="74.00">
        <route edges="-E8 E6"/>
    </vehicle>
    <vehicle id="3.74" depart="74.00">
        <route edges="-E9 E8"/>
    </vehicle>
    <vehicle id="0.75" depart="75.00">
        <route edges="-E6 E9"/>
    </vehicle>
    <vehicle id="1.75" depart="75.00">
        <route edges="-E7 E9"/>
    </vehicle>
    <vehicle id="2.75" depart="75.00">
        <route edges="-E8 E7"/>
    </vehicle>
    <vehicle id="3.75" depart="75.00">
        <route edges="-E9 E6"/>
    </vehicle>
    <vehicle id="0.76" depart="76.00">
        <route edges="-E6 E8"/>
    </vehicle>
    <vehicle id="1.76" depart="76.00">
        <route edges="-E7 E9"/>
    </vehicle>
    <vehicle id="2.76" depart="76.00">
        <route edges="-E8 E9"/>
    </vehicle>
    <vehicle id="3.76" depart="76.00">
        <route edges="-E9 E6"/>
    </vehicle>
    <vehicle id="0.77" depart="77.00">
        <route edges="-E6 E7"/>
    </vehicle>
    <vehicle id="1.77" depart="77.00">
        <route edges="-E7 E9"/>
    </vehicle>
    <vehicle id="2.77" depart="77.00">
        <route edges="-E8 E6"/>
    </vehicle>
    <vehicle id="3.77" depart="77.00">
        <route edges="-E9 E6"/>
    </vehicle>
    <vehicle id="0.78" depart="78.00">
        <route edges="-E6 E9"/>
    </vehicle>
    <vehicle id="1.78" depart="78.00">
        <route edges="-E7 E9"/>
    </vehicle>
    <vehicle id="2.78" depart="78.00">
        <route edges="-E8 E6"/>
    </vehicle>
    <vehicle id="3.78" depart="78.00">
        <route edges="-E9 E6"/>
    </vehicle>
    <vehicle id="0.79" depart="79.00">
        <route edges="-E6 E7"/>
    </vehicle>
    <vehicle id="1.79" depart="79.00">
        <route edges="-E7 E8"/>
    </vehicle>
    <vehicle id="2.79" depart="79.00">
        <route edges="-E8 E6"/>
    </vehicle>
    <vehicle id="3.79" depart="79.00">
        <route edges="-E9 E7"/>
    </vehicle>
    <vehicle id="0.80" depart="80.00">
        <route edges="-E6 E8"/>
    </vehicle>
    <vehicle id="1.80" depart="80.00">
        <route edges="-E7 E9"/>
    </vehicle>
    <vehicle id="2.80" depart="80.00">
        <route edges="-E8 E9"/>
    </vehicle>
    <vehicle id="3.80" depart="80.00">
        <route edges="-E9 E6"/>
    </vehicle>
    <vehicle id="0.81" depart="81.00">
        <route edges="-E6 E8"/>
    </vehicle>
    <vehicle id="1.81" depart="81.00">
        <route edges="-E7 E9"/>
    </vehicle>
    <vehicle id="2.81" depart="81.00">
        <route edges="-E8 E7"/>
    </vehicle>
    <vehicle id="3.81" depart="81.00">
        <route edges="-E9 E6"/>
    </vehicle>
    <vehicle id="0.82" depart="82.00">
        <route edges="-E6 E8"/>
    </vehicle>
    <vehicle id="1.82" depart="82.00">
        <route edges="-E7 E8"/>
    </vehicle>
    <vehicle id="2.82" depart="82.00">
        <route edges="-E8 E9"/>
    </vehicle>
    <vehicle id="3.82" depart="82.00">
        <route edges="-E9 E6"/>
    </vehicle>
    <vehicle id="0.83" depart="83.00">
        <route edges="-E6 E8"/>
    </vehicle>
    <vehicle id="1.83" depart="83.00">
        <route edges="-E7 E9"/>
    </vehicle>
    <vehicle id="2.83" depart="83.00">
        <route edges="-E8 E6"/>
    </vehicle>
    <vehicle id="3.83" depart="83.00">
        <route edges="-E9 E6"/>
    </vehicle>
    <vehicle id="0.84" depart="84.00">
        <route edges="-E6 E7"/>
    </vehicle>
    <vehicle id="1.84" depart="84.00">
        <route edges="-E7 E8"/>
    </vehicle>
    <vehicle id="2.84" depart="84.00">
        <route edges="-E8 E9"/>
    </vehicle>
    <vehicle id="3.84" depart="84.00">
        <route edges="-E9 E7"/>
    </vehicle>
    <vehicle id="0.85" depart="85.00">