<?xml version="1.0" encoding="UTF-8"?>

<!-- generated on 2024-05-06 20:29:06 by Eclipse SUMO jtrrouter Version 1.19.0
<configuration xmlns:xsi="http://www.w3.org/2001/XMLSchema-instance" xsi:noNamespaceSchemaLocation="http://sumo.dlr.de/xsd/jtrrouterConfiguration.xsd">

    <input>
        <net-file value="4.net.xml"/>
        <route-files value="vtype_def.xml,vdistribution_def.xml,v_vehs.flows.xml"/>
        <turn-ratio-files value="v_vehs.turns.xml"/>
    </input>

    <output>
        <output-file value="v_vehs.rou.xml"/>
    </output>

    <processing>
        <accept-all-destinations value="true"/>
    </processing>

</configuration>
-->

<routes xmlns:xsi="http://www.w3.org/2001/XMLSchema-instance" xsi:noNamespaceSchemaLocation="http://sumo.dlr.de/xsd/routes_file.xsd">
    <vType id="vt_car" minGap="2.50" maxSpeed="15.00" vClass="passenger" color="yellow" laneChangeModel="LC2013" accel="2.6" decel="4.5" sigma="0.5"/>
    <vehicle id="chegongzhuangxilu_east_T2.0" type="vt_car" depart="0.00" departLane="best">
        <route edges="E3 E4 E5 E6"/>
    </vehicle>
    <vehicle id="chegongzhuangxilu_west_T2.0" type="vt_car" depart="0.00" departLane="best">
        <route edges="E8 E9 E7"/>
    </vehicle>
    <vehicle id="fuchenglu_east_T2.0" type="vt_car" depart="0.00" departLane="best">
        <route edges="E33 E34 E35"/>
    </vehicle>
    <vehicle id="fuchenglu_west_T2.0" type="vt_car" depart="0.00" departLane="best">
        <route edges="E37 E38 E36"/>
    </vehicle>
    <vehicle id="shoutinanlu_north_T2.0" type="vt_car" depart="0.00" departLane="best">
        <route edges="E10 E11 E12 E13 E6"/>
    </vehicle>
    <vehicle id="zengguanglu_east_T2.0" type="vt_car" depart="0.00" departLane="best">
        <route edges="E19 E18 E29 E30 E35"/>
    </vehicle>
    <vehicle id="zengguanglu_west_T2.0" type="vt_car" depart="0.00" departLane="best">
        <route edges="E23 E22 E20 E21"/>
    </vehicle>
    <vehicle id="chegongzhuangxilu_east_T2.1" type="vt_car" depart="10.62" departLane="best">
        <route edges="E3 E4 E5 E16 E17 E29 E30 E35"/>
    </vehicle>
    <vehicle id="fuchenglu_east_T2.1" type="vt_car" depart="12.72" departLane="best">
        <route edges="E33 E34 E35"/>
    </vehicle>
    <vehicle id="shoutinanlu_north_T2.1" type="vt_car" depart="13.19" departLane="best">
        <route edges="E10 E11 E12 E13 E6"/>
    </vehicle>
    <vehicle id="chegongzhuangxilu_west_T2.1" type="vt_car" depart="13.48" departLane="best">
        <route edges="E8 E9 E7"/>
    </vehicle>
    <vehicle id="fuchenglu_west_T2.1" type="vt_car" depart="16.74" departLane="best">
        <route edges="E37 E38 E36"/>
    </vehicle>
    <vehicle id="chegongzhuangxilu_east_T2.2" type="vt_car" depart="21.24" departLane="best">
        <route edges="E3 E4 E5 E0 E1 E2"/>
    </vehicle>
    <vehicle id="zengguanglu_west_T2.1" type="vt_car" depart="21.95" departLane="best">
        <route edges="E23 E22 E29 E30 E35"/>
    </vehicle>
    <vehicle id="fuchenglu_east_T2.2" type="vt_car" depart="25.44" departLane="best">
        <route edges="E33 E34 E35"/>
    </vehicle>
    <vehicle id="shoutinanlu_north_T2.2" type="vt_car" depart="26.37" departLane="best">
        <route edges="E10 E11 E12 E13 E7"/>
    </vehicle>
    <vehicle id="chegongzhuangxilu_west_T2.2" type="vt_car" depart="26.97" departLane="best">
        <route edges="E8 E9 E7"/>
    </vehicle>
    <vehicle id="zengguanglu_east_T2.1" type="vt_car" depart="28.80" departLane="best">
        <route edges="E19 E18 E24 E25"/>
    </vehicle>
    <vehicle id="chegongzhuangxilu_east_T2.3" type="vt_car" depart="31.86" departLane="best">
        <route edges="E3 E4 E5 E6"/>
    </vehicle>
    <vehicle id="fuchenglu_west_T2.2" type="vt_car" depart="33.49" departLane="best">
        <route edges="E37 E38 E36"/>
    </vehicle>
    <vehicle id="fuchenglu_east_T2.3" type="vt_car" depart="38.16" departLane="best">
        <route edges="E33 E34 E35"/>
    </vehicle>
    <vehicle id="shoutinanlu_north_T2.3" type="vt_car" depart="39.56" departLane="best">
        <route edges="E10 E11 E12 E13 E16 E17 E29 E30 E36"/>
    </vehicle>
    <vehicle id="chegongzhuangxilu_west_T2.3" type="vt_car" depart="40.45" departLane="best">
        <route edges="E8 E9 E7"/>
    </vehicle>
    <vehicle id="chegongzhuangxilu_east_T2.4" type="vt_car" depart="42.48" departLane="best">
        <route edges="E3 E4 E5 E6"/>
    </vehicle>
    <vehicle id="zengguanglu_west_T2.2" type="vt_car" depart="43.90" departLane="best">
        <route edges="E23 E22 E29 E30 E35"/>
    </vehicle>
    <vehicle id="fuchenglu_west_T2.3" type="vt_car" depart="50.23" departLane="best">
        <route edges="E37 E38 E27 E26 E24 E25"/>
    </vehicle>
    <vehicle id="fuchenglu_east_T2.4" type="vt_car" depart="50.88" departLane="best">
        <route edges="E33 E34 E35"/>
    </vehicle>
    <vehicle id="shoutinanlu_north_T2.4" type="vt_car" depart="52.75" departLane="best">
        <route edges="E10 E11 E12 E13 E7"/>
    </vehicle>
    <vehicle id="chegongzhuangxilu_east_T2.5" type="vt_car" depart="53.10" departLane="best">
        <route edges="E3 E4 E5 E6"/>
    </vehicle>
    <vehicle id="chegongzhuangxilu_west_T2.4" type="vt_car" depart="53.93" departLane="best">
        <route edges="E8 E9 E7"/>
    </vehicle>
    <vehicle id="zengguanglu_east_T2.2" type="vt_car" depart="57.60" departLane="best">
        <route edges="E19 E18 E24 E25"/>
    </vehicle>
    <vehicle id="fuchenglu_east_T2.5" type="vt_car" depart="63.61" departLane="best">
        <route edges="E33 E34 E35"/>
    </vehicle>
    <vehicle id="chegongzhuangxilu_east_T2.6" type="vt_car" depart="63.71" departLane="best">
        <route edges="E3 E4 E5 E6"/>
    </vehicle>
    <vehicle id="zengguanglu_west_T2.3" type="vt_car" depart="65.85" departLane="best">
        <route edges="E23 E22 E20 E21"/>
    </vehicle>
    <vehicle id="shoutinanlu_north_T2.5" type="vt_car" depart="65.94" departLane="best">
        <route edges="E10 E11 E12 E13 E6"/>
    </vehicle>
    <vehicle id="fuchenglu_west_T2.4" type="vt_car" depart="66.98" departLane="best">
        <route edges="E37 E38 E36"/>
    </vehicle>
    <vehicle id="chegongzhuangxilu_west_T2.5" type="vt_car" depart="67.42" departLane="best">
        <route edges="E8 E9 E0 E1 E2"/>
    </vehicle>
    <vehicle id="chegongzhuangxilu_east_T2.7" type="vt_car" depart="74.33" departLane="best">
        <route edges="E3 E4 E5 E6"/>
    </vehicle>
    <vehicle id="fuchenglu_east_T2.6" type="vt_car" depart="76.33" departLane="best">
        <route edges="E33 E34 E35"/>
    </vehicle>
    <vehicle id="shoutinanlu_north_T2.6" type="vt_car" depart="79.12" departLane="best">
        <route edges="E10 E11 E12 E13 E16 E17 E24 E25"/>
    </vehicle>
    <vehicle id="chegongzhuangxilu_west_T2.6" type="vt_car" depart="80.90" departLane="best">
        <route edges="E8 E9 E7"/>
    </vehicle>
    <vehicle id="fuchenglu_west_T2.5" type="vt_car" depart="83.72" departLane="best">
        <route edges="E37 E38 E36"/>
    </vehicle>
    <vehicle id="chegongzhuangxilu_east_T2.8" type="vt_car" depart="84.95" departLane="best">
        <route edges="E3 E4 E5 E0 E1 E2"/>
    </vehicle>
    <vehicle id="zengguanglu_east_T2.3" type="vt_car" depart="86.40" departLane="best">
        <route edges="E19 E18 E15 E14 E7"/>
    </vehicle>
    <vehicle id="zengguanglu_west_T2.4" type="vt_car" depart="87.80" departLane="best">
        <route edges="E23 E22 E20 E21"/>
    </vehicle>
    <vehicle id="fuchenglu_east_T2.7" type="vt_car" depart="89.05" departLane="best">
        <route edges="E33 E34 E35"/>
    </vehicle>
    <vehicle id="shoutinanlu_north_T2.7" type="vt_car" depart="92.31" departLane="best">
        <route edges="E10 E11 E12 E13 E6"/>
    </vehicle>
    <vehicle id="chegongzhuangxilu_west_T2.7" type="vt_car" depart="94.38" departLane="best">
        <route edges="E8 E9 E7"/>
    </vehicle>
    <vehicle id="chegongzhuangxilu_east_T2.9" type="vt_car" depart="95.57" departLane="best">
        <route edges="E3 E4 E5 E6"/>
    </vehicle>
    <vehicle id="fuchenglu_west_T2.6" type="vt_car" depart="100.46" departLane="best">
        <route edges="E37 E38 E36"/>
    </vehicle>
    <vehicle id="fuchenglu_east_T2.8" type="vt_car" depart="101.77" departLane="best">
        <route edges="E33 E34 E35"/>
    </vehicle>
    <vehicle id="shoutinanlu_north_T2.8" type="vt_car" depart="105.50" departLane="best">
        <route edges="E10 E11 E12 E13 E7"/>
    </vehicle>
    <vehicle id="chegongzhuangxilu_east_T2.10" type="vt_car" depart="106.19" departLane="best">
        <route edges="E3 E4 E5 E0 E1 E2"/>
    </vehicle>
    <vehicle id="chegongzhuangxilu_west_T2.8" type="vt_car" depart="107.86" departLane="best">
        <route edges="E8 E9 E7"/>
    </vehicle>
    <vehicle id="zengguanglu_west_T2.5" type="vt_car" depart="109.76" departLane="best">
        <route edges="E23 E22 E29 E30 E36"/>
    </vehicle>
    <vehicle id="fuchenglu_east_T2.9" type="vt_car" depart="114.49" departLane="best">
        <route edges="E33 E34 E35"/>
    </vehicle>
    <vehicle id="zengguanglu_east_T2.4" type="vt_car" depart="115.20" departLane="best">
        <route edges="E19 E18 E24 E25"/>
    </vehicle>
    <vehicle id="chegongzhuangxilu_east_T2.11" type="vt_car" depart="116.81" departLane="best">
        <route edges="E3 E4 E5 E6"/>
    </vehicle>
    <vehicle id="fuchenglu_west_T2.7" type="vt_car" depart="117.21" departLane="best">
        <route edges="E37 E38 E36"/>
    </vehicle>
    <vehicle id="shoutinanlu_north_T2.9" type="vt_car" depart="118.68" departLane="best">
        <route edges="E10 E11 E12 E13 E16 E17 E29 E30 E35"/>
    </vehicle>
    <vehicle id="chegongzhuangxilu_west_T2.9" type="vt_car" depart="121.35" departLane="best">
        <route edges="E8 E9 E7"/>
    </vehicle>
    <vehicle id="fuchenglu_east_T2.10" type="vt_car" depart="127.21" departLane="best">
        <route edges="E33 E34 E35"/>
    </vehicle>
    <vehicle id="chegongzhuangxilu_east_T2.12" type="vt_car" depart="127.43" departLane="best">
        <route edges="E3 E4 E5 E6"/>
    </vehicle>
    <vehicle id="zengguanglu_west_T2.6" type="vt_car" depart="131.71" departLane="best">
        <route edges="E23 E22 E29 E30 E35"/>
    </vehicle>
    <vehicle id="shoutinanlu_north_T2.10" type="vt_car" depart="131.87" departLane="best">
        <route edges="E10 E11 E12 E13 E7"/>
    </vehicle>
    <vehicle id="fuchenglu_west_T2.8" type="vt_car" depart="133.95" departLane="best">
        <route edges="E37 E38 E27 E26 E15 E14 E0 E1 E2"/>
    </vehicle>
    <vehicle id="chegongzhuangxilu_west_T2.10" type="vt_car" depart="134.83" departLane="best">
        <route edges="E8 E9 E7"/>
    </vehicle>
    <vehicle id="chegongzhuangxilu_east_T2.13" type="vt_car" depart="138.05" departLane="best">
        <route edges="E3 E4 E5 E6"/>
    </vehicle>
    <vehicle id="fuchenglu_east_T2.11" type="vt_car" depart="139.93" departLane="best">
        <route edges="E33 E34 E35"/>
    </vehicle>
    <vehicle id="zengguanglu_east_T2.5" type="vt_car" depart="144.00" departLane="best">
        <route edges="E19 E18 E24 E25"/>
    </vehicle>
    <vehicle id="shoutinanlu_north_T2.11" type="vt_car" depart="145.06" departLane="best">
        <route edges="E10 E11 E12 E13 E16 E17 E20 E21"/>
    </vehicle>
    <vehicle id="chegongzhuangxilu_west_T2.11" type="vt_car" depart="148.31" departLane="best">
        <route edges="E8 E9 E7"/>
    </vehicle>
    <vehicle id="chegongzhuangxilu_east_T2.14" type="vt_car" depart="148.67" departLane="best">
        <route edges="E3 E4 E5 E0 E1 E2"/>
    </vehicle>
    <vehicle id="fuchenglu_west_T2.9" type="vt_car" depart="150.70" departLane="best">
        <route edges="E37 E38 E36"/>
    </vehicle>
    <vehicle id="fuchenglu_east_T2.12" type="vt_car" depart="152.65" departLane="best">
        <route edges="E33 E34 E35"/>
    </vehicle>
    <vehicle id="zengguanglu_west_T2.7" type="vt_car" depart="153.66" departLane="best">
        <route edges="E23 E22 E20 E21"/>
    </vehicle>
    <vehicle id="shoutinanlu_north_T2.12" type="vt_car" depart="158.24" departLane="best">
        <route edges="E10 E11 E12 E13 E6"/>
    </vehicle>
    <vehicle id="chegongzhuangxilu_east_T2.15" type="vt_car" depart="159.29" departLane="best">
        <route edges="E3 E4 E5 E6"/>
    </vehicle>
    <vehicle id="chegongzhuangxilu_west_T2.12" type="vt_car" depart="161.80" departLane="best">
        <route edges="E8 E9 E7"/>
    </vehicle>
    <vehicle id="fuchenglu_east_T2.13" type="vt_car" depart="165.37" departLane="best">
        <route edges="E33 E34 E35"/>
    </vehicle>
    <vehicle id="fuchenglu_west_T2.10" type="vt_car" depart="167.44" departLane="best">
        <route edges="E37 E38 E36"/>
    </vehicle>
    <vehicle id="chegongzhuangxilu_east_T2.16" type="vt_car" depart="169.90" departLane="best">
        <route edges="E3 E4 E5 E16 E17 E15 E14 E7"/>
    </vehicle>
    <vehicle id="shoutinanlu_north_T2.13" type="vt_car" depart="171.43" departLane="best">
        <route edges="E10 E11 E12 E13 E16 E17 E29 E30 E36"/>
    </vehicle>
    <vehicle id="zengguanglu_east_T2.6" type="vt_car" depart="172.80" departLane="best">
        <route edges="E19 E18 E24 E25"/>
    </vehicle>
    <vehicle id="chegongzhuangxilu_west_T2.13" type="vt_car" depart="175.28" departLane="best">
        <route edges="E8 E9 E7"/>
    </vehicle>
    <vehicle id="zengguanglu_west_T2.8" type="vt_car" depart="175.61" departLane="best">
        <route edges="E23 E22 E20 E21"/>
    </vehicle>
    <vehicle id="fuchenglu_east_T2.14" type="vt_car" depart="178.09" departLane="best">
        <route edges="E33 E34 E35"/>
    </vehicle>
    <vehicle id="chegongzhuangxilu_east_T2.17" type="vt_car" depart="180.52" departLane="best">
        <route edges="E3 E4 E5 E6"/>
    </vehicle>
    <vehicle id="fuchenglu_west_T2.11" type="vt_car" depart="184.18" departLane="best">
        <route edges="E37 E38 E27 E26 E15 E14 E7"/>
    </vehicle>
    <vehicle id="shoutinanlu_north_T2.14" type="vt_car" depart="184.62" departLane="best">
        <route edges="E10 E11 E12 E13 E16 E17 E29 E30 E36"/>
    </vehicle>
    <vehicle id="chegongzhuangxilu_west_T2.14" type="vt_car" depart="188.76" departLane="best">
        <route edges="E8 E9 E16 E17 E29 E30 E36"/>
    </vehicle>
    <vehicle id="fuchenglu_east_T2.15" type="vt_car" depart="190.82" departLane="best">
        <route edges="E33 E34 E35"/>
    </vehicle>
    <vehicle id="chegongzhuangxilu_east_T2.18" type="vt_car" depart="191.14" departLane="best">
        <route edges="E3 E4 E5 E6"/>
    </vehicle>
    <vehicle id="zengguanglu_west_T2.9" type="vt_car" depart="197.56" departLane="best">
        <route edges="E23 E22 E20 E21"/>
    </vehicle>
    <vehicle id="shoutinanlu_north_T2.15" type="vt_car" depart="197.81" departLane="best">
        <route edges="E10 E11 E12 E13 E16 E17 E29 E30 E36"/>
    </vehicle>
    <vehicle id="fuchenglu_west_T2.12" type="vt_car" depart="200.93" departLane="best">
        <route edges="E37 E38 E27 E26 E24 E25"/>
    </vehicle>
    <vehicle id="zengguanglu_east_T2.7" type="vt_car" depart="201.60" departLane="best">
        <route edges="E19 E18 E15 E14 E7"/>
    </vehicle>
    <vehicle id="chegongzhuangxilu_east_T2.19" type="vt_car" depart="201.76" departLane="best">
        <route edges="E3 E4 E5 E6"/>
    </vehicle>
    <vehicle id="chegongzhuangxilu_west_T2.15" type="vt_car" depart="202.25" departLane="best">
        <route edges="E8 E9 E16 E17 E29 E30 E36"/>
    </vehicle>
    <vehicle id="fuchenglu_east_T2.16" type="vt_car" depart="203.54" departLane="best">
        <route edges="E33 E34 E35"/>
    </vehicle>
    <vehicle id="shoutinanlu_north_T2.16" type="vt_car" depart="210.99" departLane="best">
        <route edges="E10 E11 E12 E13 E6"/>
    </vehicle>
    <vehicle id="chegongzhuangxilu_east_T2.20" type="vt_car" depart="212.38" departLane="best">
        <route edges="E3 E4 E5 E16 E17 E24 E25"/>
    </vehicle>
    <vehicle id="chegongzhuangxilu_west_T2.16" type="vt_car" depart="215.73" departLane="best">
        <route edges="E8 E9 E7"/>
    </vehicle>
    <vehicle id="fuchenglu_east_T2.17" type="vt_car" depart="216.26" departLane="best">
        <route edges="E33 E34 E35"/>
    </vehicle>
    <vehicle id="fuchenglu_west_T2.13" type="vt_car" depart="217.67" departLane="best">
        <route edges="E37 E38 E36"/>
    </vehicle>
    <vehicle id="zengguanglu_west_T2.10" type="vt_car" depart="219.51" departLane="best">
        <route edges="E23 E22 E20 E21"/>
    </vehicle>
    <vehicle id="chegongzhuangxilu_east_T2.21" type="vt_car" depart="223.00" departLane="best">
        <route edges="E3 E4 E5 E6"/>
    </vehicle>
    <vehicle id="shoutinanlu_north_T2.17" type="vt_car" depart="224.18" departLane="best">
        <route edges="E10 E11 E12 E13 E7"/>
    </vehicle>
    <vehicle id="fuchenglu_east_T2.18" type="vt_car" depart="228.98" departLane="best">
        <route edges="E33 E34 E27 E26 E15 E14 E7"/>
    </vehicle>
    <vehicle id="chegongzhuangxilu_west_T2.17" type="vt_car" depart="229.21" departLane="best">
        <route edges="E8 E9 E7"/>
    </vehicle>
    <vehicle id="zengguanglu_east_T2.8" type="vt_car" depart="230.40" departLane="best">
        <route edges="E19 E18 E29 E30 E35"/>
    </vehicle>
    <vehicle id="chegongzhuangxilu_east_T2.22" type="vt_car" depart="233.62" departLane="best">
        <route edges="E3 E4 E5 E6"/>
    </vehicle>
    <vehicle id="fuchenglu_west_T2.14" type="vt_car" depart="234.42" departLane="best">
        <route edges="E37 E38 E36"/>
    </vehicle>
    <vehicle id="shoutinanlu_north_T2.18" type="vt_car" depart="237.37" departLane="best">
        <route edges="E10 E11 E12 E13 E6"/>
    </vehicle>
    <vehicle id="zengguanglu_west_T2.11" type="vt_car" depart="241.46" departLane="best">
        <route edges="E23 E22 E20 E21"/>
    </vehicle>
    <vehicle id="fuchenglu_east_T2.19" type="vt_car" depart="241.70" departLane="best">
        <route edges="E33 E34 E35"/>
    </vehicle>
    <vehicle id="chegongzhuangxilu_west_T2.18" type="vt_car" depart="242.69" departLane="best">
        <route edges="E8 E9 E7"/>
    </vehicle>
    <vehicle id="chegongzhuangxilu_east_T2.23" type="vt_car" depart="244.24" departLane="best">
        <route edges="E3 E4 E5 E0 E1 E2"/>
    </vehicle>
    <vehicle id="shoutinanlu_north_T2.19" type="vt_car" depart="250.55" departLane="best">
        <route edges="E10 E11 E12 E13 E16 E17 E29 E30 E35"/>
    </vehicle>
    <vehicle id="fuchenglu_west_T2.15" type="vt_car" depart="251.16" departLane="best">
        <route edges="E37 E38 E36"/>
    </vehicle>
    <vehicle id="fuchenglu_east_T2.20" type="vt_car" depart="254.42" departLane="best">
        <route edges="E33 E34 E35"/>
    </vehicle>
    <vehicle id="chegongzhuangxilu_east_T2.24" type="vt_car" depart="254.86" departLane="best">
        <route edges="E3 E4 E5 E16 E17 E29 E30 E36"/>
    </vehicle>
    <vehicle id="chegongzhuangxilu_west_T2.19" type="vt_car" depart="256.18" departLane="best">
        <route edges="E8 E9 E7"/>
    </vehicle>
    <vehicle id="zengguanglu_east_T2.9" type="vt_car" depart="259.20" departLane="best">
        <route edges="E19 E18 E24 E25"/>
    </vehicle>
    <vehicle id="zengguanglu_west_T2.12" type="vt_car" depart="263.41" departLane="best">
        <route edges="E23 E22 E20 E21"/>
    </vehicle>
    <vehicle id="shoutinanlu_north_T2.20" type="vt_car" depart="263.74" departLane="best">
        <route edges="E10 E11 E12 E13 E6"/>
    </vehicle>
    <vehicle id="chegongzhuangxilu_east_T2.25" type="vt_car" depart="265.48" departLane="best">
        <route edges="E3 E4 E5 E6"/>
    </vehicle>
    <vehicle id="fuchenglu_east_T2.21" type="vt_car" depart="267.14" departLane="best">
        <route edges="E33 E34 E35"/>
    </vehicle>
    <vehicle id="fuchenglu_west_T2.16" type="vt_car" depart="267.90" departLane="best">
        <route edges="E37 E38 E27 E26 E15 E14 E0 E1 E2"/>
    </vehicle>
    <vehicle id="chegongzhuangxilu_west_T2.20" type="vt_car" depart="269.66" departLane="best">
        <route edges="E8 E9 E0 E1 E2"/>
    </vehicle>
    <vehicle id="chegongzhuangxilu_east_T2.26" type="vt_car" depart="276.09" departLane="best">
        <route edges="E3 E4 E5 E6"/>
    </vehicle>
    <vehicle id="shoutinanlu_north_T2.21" type="vt_car" depart="276.93" departLane="best">
        <route edges="E10 E11 E12 E13 E16 E17 E29 E30 E35"/>
    </vehicle>
    <vehicle id="fuchenglu_east_T2.22" type="vt_car" depart="279.86" departLane="best">
        <route edges="E33 E34 E27 E26 E24 E25"/>
    </vehicle>
    <vehicle id="chegongzhuangxilu_west_T2.21" type="vt_car" depart="283.14" departLane="best">
        <route edges="E8 E9 E7"/>
    </vehicle>
    <vehicle id="fuchenglu_west_T2.17" type="vt_car" depart="284.65" departLane="best">
        <route edges="E37 E38 E27 E26 E15 E14 E0 E1 E2"/>
    </vehicle>
    <vehicle id="zengguanglu_west_T2.13" type="vt_car" depart="285.36" departLane="best">
        <route edges="E23 E22 E20 E21"/>
    </vehicle>
    <vehicle id="chegongzhuangxilu_east_T2.27" type="vt_car" depart="286.71" departLane="best">
        <route edges="E3 E4 E5 E6"/>
    </vehicle>
    <vehicle id="zengguanglu_east_T2.10" type="vt_car" depart="288.00" departLane="best">
        <route edges="E19 E18 E24 E25"/>
    </vehicle>
    <vehicle id="shoutinanlu_north_T2.22" type="vt_car" depart="290.11" departLane="best">
        <route edges="E10 E11 E12 E13 E7"/>
    </vehicle>
    <vehicle id="fuchenglu_east_T2.23" type="vt_car" depart="292.58" departLane="best">
        <route edges="E33 E34 E35"/>
    </vehicle>
    <vehicle id="chegongzhuangxilu_west_T2.22" type="vt_car" depart="296.63" departLane="best">
        <route edges="E8 E9 E7"/>
    </vehicle>
    <vehicle id="chegongzhuangxilu_east_T2.28" type="vt_car" depart="297.33" departLane="best">
        <route edges="E3 E4 E5 E6"/>
    </vehicle>
    <vehicle id="fuchenglu_west_T2.18" type="vt_car" depart="301.39" departLane="best">
        <route edges="E37 E38 E36"/>
    </vehicle>
    <vehicle id="shoutinanlu_north_T2.23" type="vt_car" depart="303.30" departLane="best">
        <route edges="E10 E11 E12 E13 E16 E17 E20 E21"/>
    </vehicle>
    <vehicle id="fuchenglu_east_T2.24" type="vt_car" depart="305.30" departLane="best">
        <route edges="E33 E34 E35"/>
    </vehicle>
    <vehicle id="zengguanglu_west_T2.14" type="vt_car" depart="307.31" departLane="best">
        <route edges="E23 E22 E29 E30 E35"/>
    </vehicle>
    <vehicle id="chegongzhuangxilu_east_T2.29" type="vt_car" depart="307.95" departLane="best">
        <route edges="E3 E4 E5 E6"/>
    </vehicle>
    <vehicle id="chegongzhuangxilu_west_T2.23" type="vt_car" depart="310.11" departLane="best">
        <route edges="E8 E9 E7"/>
    </vehicle>
    <vehicle id="shoutinanlu_north_T2.24" type="vt_car" depart="316.49" departLane="best">
        <route edges="E10 E11 E12 E13 E6"/>
    </vehicle>
    <vehicle id="zengguanglu_east_T2.11" type="vt_car" depart="316.80" departLane="best">
        <route edges="E19 E18 E15 E14 E7"/>
    </vehicle>
    <vehicle id="fuchenglu_east_T2.25" type="vt_car" depart="318.03" departLane="best">
        <route edges="E33 E34 E35"/>
    </vehicle>
    <vehicle id="fuchenglu_west_T2.19" type="vt_car" depart="318.14" departLane="best">
        <route edges="E37 E38 E27 E26 E20 E21"/>
    </vehicle>
    <vehicle id="chegongzhuangxilu_east_T2.30" type="vt_car" depart="318.57" departLane="best">
        <route edges="E3 E4 E5 E0 E1 E2"/>
    </vehicle>
    <vehicle id="chegongzhuangxilu_west_T2.24" type="vt_car" depart="323.59" departLane="best">
        <route edges="E8 E9 E16 E17 E15 E14 E7"/>
    </vehicle>
    <vehicle id="chegongzhuangxilu_east_T2.31" type="vt_car" depart="329.19" departLane="best">
        <route edges="E3 E4 E5 E6"/>
    </vehicle>
    <vehicle id="zengguanglu_west_T2.15" type="vt_car" depart="329.27" departLane="best">
        <route edges="E23 E22 E20 E21"/>
    </vehicle>
    <vehicle id="shoutinanlu_north_T2.25" type="vt_car" depart="329.68" departLane="best">
        <route edges="E10 E11 E12 E13 E7"/>
    </vehicle>
    <vehicle id="fuchenglu_east_T2.26" type="vt_car" depart="330.75" departLane="best">
        <route edges="E33 E34 E35"/>
    </vehicle>
    <vehicle id="fuchenglu_west_T2.20" type="vt_car" depart="334.88" departLane="best">
        <route edges="E37 E38 E36"/>
    </vehicle>
    <vehicle id="chegongzhuangxilu_west_T2.25" type="vt_car" depart="337.08" departLane="best">
        <route edges="E8 E9 E7"/>
    </vehicle>
    <vehicle id="chegongzhuangxilu_east_T2.32" type="vt_car" depart="339.81" departLane="best">
        <route edges="E3 E4 E5 E6"/>
    </vehicle>
    <vehicle id="shoutinanlu_north_T2.26" type="vt_car" depart="342.86" departLane="best">
        <route edges="E10 E11 E12 E13 E16 E17 E20 E21"/>
    </vehicle>
    <vehicle id="fuchenglu_east_T2.27" type="vt_car" depart="343.47" departLane="best">
        <route edges="E33 E34 E35"/>
    </vehicle>
    <vehicle id="zengguanglu_east_T2.12" type="vt_car" depart="345.60" departLane="best">
        <route edges="E19 E18 E15 E14 E6"/>
    </vehicle>
    <vehicle id="chegongzhuangxilu_east_T2.33" type="vt_car" depart="350.43" departLane="best">
        <route edges="E3 E4 E5 E6"/>
    </vehicle>
    <vehicle id="chegongzhuangxilu_west_T2.26" type="vt_car" depart="350.56" departLane="best">
        <route edges="E8 E9 E7"/>
    </vehicle>
    <vehicle id="zengguanglu_west_T2.16" type="vt_car" depart="351.22" departLane="best">
        <route edges="E23 E22 E29 E30 E36"/>
    </vehicle>
    <vehicle id="fuchenglu_west_T2.21" type="vt_car" depart="351.62" departLane="best">
        <route edges="E37 E38 E27 E26 E15 E14 E0 E1 E2"/>
    </vehicle>
    <vehicle id="shoutinanlu_north_T2.27" type="vt_car" depart="356.05" departLane="best">
        <route edges="E10 E11 E12 E13 E6"/>
    </vehicle>
    <vehicle id="fuchenglu_east_T2.28" type="vt_car" depart="356.19" departLane="best">
        <route edges="E33 E34 E35"/>
    </vehicle>
    <vehicle id="chegongzhuangxilu_east_T2.34" type="vt_car" depart="361.05" departLane="best">
        <route edges="E3 E4 E5 E6"/>
    </vehicle>
    <vehicle id="chegongzhuangxilu_west_T2.27" type="vt_car" depart="364.04" departLane="best">
        <route edges="E8 E9 E16 E17 E29 E30 E35"/>
    </vehicle>
    <vehicle id="fuchenglu_west_T2.22" type="vt_car" depart="368.37" departLane="best">
        <route edges="E37 E38 E36"/>
    </vehicle>
    <vehicle id="fuchenglu_east_T2.29" type="vt_car" depart="368.91" departLane="best">
        <route edges="E33 E34 E35"/>
    </vehicle>
    <vehicle id="shoutinanlu_north_T2.28" type="vt_car" depart="369.24" departLane="best">
        <route edges="E10 E11 E12 E13 E6"/>
    </vehicle>
    <vehicle id="chegongzhuangxilu_east_T2.35" type="vt_car" depart="371.67" departLane="best">
        <route edges="E3 E4 E5 E16 E17 E29 E30 E36"/>
    </vehicle>
    <vehicle id="zengguanglu_west_T2.17" type="vt_car" depart="373.17" departLane="best">
        <route edges="E23 E22 E15 E14 E0 E1 E2"/>
    </vehicle>
    <vehicle id="zengguanglu_east_T2.13" type="vt_car" depart="374.40" departLane="best">
        <route edges="E19 E18 E29 E30 E36"/>
    </vehicle>
    <vehicle id="chegongzhuangxilu_west_T2.28" type="vt_car" depart="377.52" departLane="best">
        <route edges="E8 E9 E7"/>
    </vehicle>
    <vehicle id="fuchenglu_east_T2.30" type="vt_car" depart="381.63" departLane="best">
        <route edges="E33 E34 E35"/>
    </vehicle>
    <vehicle id="chegongzhuangxilu_east_T2.36" type="vt_car" depart="382.28" departLane="best">
        <route edges="E3 E4 E5 E6"/>
    </vehicle>
    <vehicle id="shoutinanlu_north_T2.29" type="vt_car" depart="382.42" departLane="best">
        <route edges="E10 E11 E12 E13 E6"/>
    </vehicle>
    <vehicle id="fuchenglu_west_T2.23" type="vt_car" depart="385.11" departLane="best">
        <route edges="E37 E38 E36"/>
    </vehicle>
    <vehicle id="chegongzhuangxilu_west_T2.29" type="vt_car" depart="391.01" departLane="best">
        <route edges="E8 E9 E7"/>
    </vehicle>
    <vehicle id="chegongzhuangxilu_east_T2.37" type="vt_car" depart="392.90" departLane="best">
        <route edges="E3 E4 E5 E6"/>
    </vehicle>
    <vehicle id="fuchenglu_east_T2.31" type="vt_car" depart="394.35" departLane="best">
        <route edges="E33 E34 E35"/>
    </vehicle>
    <vehicle id="zengguanglu_west_T2.18" type="vt_car" depart="395.12" departLane="best">
        <route edges="E23 E22 E20 E21"/>
    </vehicle>
    <vehicle id="shoutinanlu_north_T2.30" type="vt_car" depart="395.61" departLane="best">
        <route edges="E10 E11 E12 E13 E16 E17 E29 E30 E35"/>
    </vehicle>
    <vehicle id="fuchenglu_west_T2.24" type="vt_car" depart="401.86" departLane="best">
        <route edges="E37 E38 E36"/>
    </vehicle>
    <vehicle id="zengguanglu_east_T2.14" type="vt_car" depart="403.20" departLane="best">
        <route edges="E19 E18 E24 E25"/>
    </vehicle>
    <vehicle id="chegongzhuangxilu_east_T2.38" type="vt_car" depart="403.52" departLane="best">
        <route edges="E3 E4 E5 E6"/>
    </vehicle>
    <vehicle id="chegongzhuangxilu_west_T2.30" type="vt_car" depart="404.49" departLane="best">
        <route edges="E8 E9 E7"/>
    </vehicle>
    <vehicle id="fuchenglu_east_T2.32" type="vt_car" depart="407.07" departLane="best">
        <route edges="E33 E34 E35"/>
    </vehicle>
    <vehicle id="shoutinanlu_north_T2.31" type="vt_car" depart="408.80" departLane="best">
        <route edges="E10 E11 E12 E13 E7"/>
    </vehicle>
    <vehicle id="chegongzhuangxilu_east_T2.39" type="vt_car" depart="414.14" departLane="best">
        <route edges="E3 E4 E5 E6"/>
    </vehicle>
    <vehicle id="zengguanglu_west_T2.19" type="vt_car" depart="417.07" departLane="best">
        <route edges="E23 E22 E29 E30 E35"/>
    </vehicle>
    <vehicle id="chegongzhuangxilu_west_T2.31" type="vt_car" depart="417.97" departLane="best">
        <route edges="E8 E9 E0 E1 E2"/>