<?xml version="1.0" encoding="UTF-8"?>

<!-- generated on 2022-05-07 08:36:29 by Eclipse SUMO jtrrouter Version 1.9.1
This data file and the accompanying materials
are made available under the terms of the Eclipse Public License v2.0
which accompanies this distribution, and is available at
http://www.eclipse.org/legal/epl-v20.html
SPDX-License-Identifier: EPL-2.0
<configuration xmlns:xsi="http://www.w3.org/2001/XMLSchema-instance" xsi:noNamespaceSchemaLocation="http://sumo.dlr.de/xsd/jtrrouterConfiguration.xsd">

    <input>
        <net-file value="spring2022.net.xml"/>
        <route-files value="spring2022_new.flows.xml"/>
        <turn-ratio-files value="spring2022_new.turns.xml"/>
    </input>

    <output>
        <output-file value="spring2022_new.rou.xml"/>
        <write-license value="true"/>
    </output>

    <processing>
        <no-internal-links value="true"/>
        <accept-all-destinations value="true"/>
    </processing>

    <report>
        <ignore-errors value="true"/>
        <no-step-log value="true"/>
    </report>

</configuration>
-->

<routes xmlns:xsi="http://www.w3.org/2001/XMLSchema-instance" xsi:noNamespaceSchemaLocation="http://sumo.dlr.de/xsd/routes_file.xsd">
    <vehicle id="0.0" depart="0.00">
        <route edges="gneE0 gneE4 gneE8"/>
    </vehicle>
    <vehicle id="1.0" depart="0.00">
        <route edges="gneE15 gneE3 gneE4 gneE8"/>
    </vehicle>
    <vehicle id="2.0" depart="0.00">
        <route edges="gneE7 gneE1"/>
    </vehicle>
    <vehicle id="3.0" depart="0.00">
        <route edges="gneE11 gneE5 gneE6"/>
    </vehicle>
    <vehicle id="4.0" depart="0.00">
        <route edges="gneE9 gneE5 gneE1"/>
    </vehicle>
    <vehicle id="5.0" depart="0.00">
        <route edges="gneE13 gneE10"/>
    </vehicle>
    <vehicle id="3.1" depart="2.57">
        <route edges="gneE11 gneE5 gneE1"/>
    </vehicle>
    <vehicle id="4.1" depart="2.57">
        <route edges="gneE9 gneE12"/>
    </vehicle>
    <vehicle id="5.1" depart="2.57">
        <route edges="gneE13 gneE5 gneE6"/>
    </vehicle>
    <vehicle id="2.1" depart="2.77">
        <route edges="gneE7 gneE1"/>
    </vehicle>
    <vehicle id="1.1" depart="3.00">
        <route edges="gneE15 gneE3 gneE4 gneE8"/>
    </vehicle>
    <vehicle id="0.1" depart="3.60">
        <route edges="gneE0 gneE2 gneE14"/>
    </vehicle>
    <vehicle id="3.2" depart="5.14">
        <route edges="gneE11 gneE12"/>
    </vehicle>
    <vehicle id="4.2" depart="5.14">
        <route edges="gneE9 gneE5 gneE2 gneE14"/>
    </vehicle>
    <vehicle id="5.2" depart="5.14">
        <route edges="gneE13 gneE8"/>
    </vehicle>
    <vehicle id="2.2" depart="5.54">
        <route edges="gneE7 gneE2 gneE14"/>
    </vehicle>
    <vehicle id="1.2" depart="6.00">
        <route edges="gneE15 gneE3 gneE1"/>
    </vehicle>
    <vehicle id="0.2" depart="7.20">
        <route edges="gneE0 gneE4 gneE8"/>
    </vehicle>
    <vehicle id="3.3" depart="7.71">
        <route edges="gneE11 gneE12"/>
    </vehicle>
    <vehicle id="4.3" depart="7.71">
        <route edges="gneE9 gneE5 gneE6"/>
    </vehicle>
    <vehicle id="5.3" depart="7.71">
        <route edges="gneE13 gneE8"/>
    </vehicle>
    <vehicle id="2.3" depart="8.31">
        <route edges="gneE7 gneE2 gneE14"/>
    </vehicle>
    <vehicle id="1.3" depart="9.00">
        <route edges="gneE15 gneE3 gneE4 gneE8"/>
    </vehicle>
    <vehicle id="3.4" depart="10.28">
        <route edges="gneE11 gneE12"/>
    </vehicle>
    <vehicle id="4.4" depart="10.28">
        <route edges="gneE9 gneE10"/>
    </vehicle>
    <vehicle id="5.4" depart="10.28">
        <route edges="gneE13 gneE10"/>
    </vehicle>
    <vehicle id="0.3" depart="10.80">
        <route edges="gneE0 gneE4 gneE5 gneE2 gneE14"/>
    </vehicle>
    <vehicle id="2.4" depart="11.08">
        <route edges="gneE7 gneE2 gneE14"/>
    </vehicle>
    <vehicle id="1.4" depart="12.00">
        <route edges="gneE15 gneE3 gneE6"/>
    </vehicle>
    <vehicle id="3.5" depart="12.86">
        <route edges="gneE11 gneE8"/>
    </vehicle>
    <vehicle id="4.5" depart="12.86">
        <route edges="gneE9 gneE5 gneE1"/>
    </vehicle>
    <vehicle id="5.5" depart="12.86">
        <route edges="gneE13 gneE10"/>
    </vehicle>
    <vehicle id="2.5" depart="13.85">
        <route edges="gneE7 gneE2 gneE14"/>
    </vehicle>
    <vehicle id="0.4" depart="14.40">
        <route edges="gneE0 gneE6"/>
    </vehicle>
    <vehicle id="1.5" depart="15.00">
        <route edges="gneE15 gneE3 gneE6"/>
    </vehicle>
    <vehicle id="3.6" depart="15.43">
        <route edges="gneE11 gneE12"/>
    </vehicle>
    <vehicle id="4.6" depart="15.43">
        <route edges="gneE9 gneE10"/>
    </vehicle>
    <vehicle id="5.6" depart="15.43">
        <route edges="gneE13 gneE10"/>
    </vehicle>
    <vehicle id="2.6" depart="16.61">
        <route edges="gneE7 gneE2 gneE14"/>
    </vehicle>
    <vehicle id="3.7" depart="18.00">
        <route edges="gneE11 gneE12"/>
    </vehicle>
    <vehicle id="4.7" depart="18.00">
        <route edges="gneE9 gneE10"/>
    </vehicle>
    <vehicle id="5.7" depart="18.00">
        <route edges="gneE13 gneE8"/>
    </vehicle>
    <vehicle id="0.5" depart="18.00">
        <route edges="gneE0 gneE4 gneE8"/>
    </vehicle>
    <vehicle id="1.6" depart="18.00">
        <route edges="gneE15 gneE3 gneE6"/>
    </vehicle>
    <vehicle id="2.7" depart="19.38">
        <route edges="gneE7 gneE1"/>
    </vehicle>
    <vehicle id="3.8" depart="20.57">
        <route edges="gneE11 gneE12"/>
    </vehicle>
    <vehicle id="4.8" depart="20.57">
        <route edges="gneE9 gneE10"/>
    </vehicle>
    <vehicle id="5.8" depart="20.57">
        <route edges="gneE13 gneE10"/>
    </vehicle>
    <vehicle id="1.7" depart="21.00">
        <route edges="gneE15 gneE3 gneE4 gneE8"/>
    </vehicle>
    <vehicle id="0.6" depart="21.60">
        <route edges="gneE0 gneE4 gneE8"/>
    </vehicle>
    <vehicle id="2.8" depart="22.15">
        <route edges="gneE7 gneE2 gneE14"/>
    </vehicle>
    <vehicle id="3.9" depart="23.14">
        <route edges="gneE11 gneE12"/>
    </vehicle>
    <vehicle id="4.9" depart="23.14">
        <route edges="gneE9 gneE5 gneE2 gneE14"/>
    </vehicle>
    <vehicle id="5.9" depart="23.14">
        <route edges="gneE13 gneE10"/>
    </vehicle>
    <vehicle id="1.8" depart="24.00">
        <route edges="gneE15 gneE3 gneE6"/>
    </vehicle>
    <vehicle id="2.9" depart="24.92">
        <route edges="gneE7 gneE1"/>
    </vehicle>
    <vehicle id="0.7" depart="25.20">
        <route edges="gneE0 gneE4 gneE12"/>
    </vehicle>
    <vehicle id="3.10" depart="25.71">
        <route edges="gneE11 gneE5 gneE1"/>
    </vehicle>
    <vehicle id="4.10" depart="25.71">
        <route edges="gneE9 gneE5 gneE1"/>
    </vehicle>
    <vehicle id="5.10" depart="25.71">
        <route edges="gneE13 gneE10"/>
    </vehicle>
    <vehicle id="1.9" depart="27.00">
        <route edges="gneE15 gneE3 gneE4 gneE8"/>
    </vehicle>
    <vehicle id="2.10" depart="27.69">
        <route edges="gneE7 gneE2 gneE14"/>
    </vehicle>
    <vehicle id="3.11" depart="28.28">
        <route edges="gneE11 gneE12"/>
    </vehicle>
    <vehicle id="4.11" depart="28.28">
        <route edges="gneE9 gneE12"/>
    </vehicle>
    <vehicle id="5.11" depart="28.28">
        <route edges="gneE13 gneE10"/>
    </vehicle>
    <vehicle id="0.8" depart="28.80">
        <route edges="gneE0 gneE4 gneE12"/>
    </vehicle>
    <vehicle id="1.10" depart="30.00">
        <route edges="gneE15 gneE3 gneE6"/>
    </vehicle>
    <vehicle id="2.11" depart="30.46">
        <route edges="gneE7 gneE2 gneE14"/>
    </vehicle>
    <vehicle id="3.12" depart="30.85">
        <route edges="gneE11 gneE5 gneE6"/>
    </vehicle>
    <vehicle id="4.12" depart="30.85">
        <route edges="gneE9 gneE5 gneE6"/>
    </vehicle>
    <vehicle id="5.12" depart="30.85">
        <route edges="gneE13 gneE8"/>
    </vehicle>
    <vehicle id="0.9" depart="32.40">
        <route edges="gneE0 gneE4 gneE8"/>
    </vehicle>
    <vehicle id="1.11" depart="33.00">
        <route edges="gneE15 gneE3 gneE4 gneE8"/>
    </vehicle>
    <vehicle id="2.12" depart="33.23">
        <route edges="gneE7 gneE4 gneE8"/>
    </vehicle>
    <vehicle id="3.13" depart="33.42">
        <route edges="gneE11 gneE12"/>
    </vehicle>
    <vehicle id="4.13" depart="33.42">
        <route edges="gneE9 gneE5 gneE1"/>
    </vehicle>
    <vehicle id="5.13" depart="33.42">
        <route edges="gneE13 gneE8"/>
    </vehicle>
    <vehicle id="3.14" depart="35.99">
        <route edges="gneE11 gneE12"/>
    </vehicle>
    <vehicle id="4.14" depart="35.99">
        <route edges="gneE9 gneE5 gneE6"/>
    </vehicle>
    <vehicle id="5.14" depart="35.99">
        <route edges="gneE13 gneE10"/>
    </vehicle>
    <vehicle id="2.13" depart="36.00">
        <route edges="gneE7 gneE2 gneE14"/>
    </vehicle>
    <vehicle id="0.10" depart="36.00">
        <route edges="gneE0 gneE4 gneE12"/>
    </vehicle>
    <vehicle id="1.12" depart="36.00">
        <route edges="gneE15 gneE3 gneE6"/>
    </vehicle>
    <vehicle id="3.15" depart="38.57">
        <route edges="gneE11 gneE5 gneE2 gneE14"/>
    </vehicle>
    <vehicle id="4.15" depart="38.57">
        <route edges="gneE9 gneE10"/>
    </vehicle>
    <vehicle id="5.15" depart="38.57">
        <route edges="gneE13 gneE8"/>
    </vehicle>
    <vehicle id="2.14" depart="38.77">
        <route edges="gneE7 gneE4 gneE8"/>
    </vehicle>
    <vehicle id="1.13" depart="39.00">
        <route edges="gneE15 gneE3 gneE1"/>
    </vehicle>
    <vehicle id="0.11" depart="39.60">
        <route edges="gneE0 gneE4 gneE8"/>
    </vehicle>
    <vehicle id="3.16" depart="41.14">
        <route edges="gneE11 gneE12"/>
    </vehicle>
    <vehicle id="4.16" depart="41.14">
        <route edges="gneE9 gneE10"/>
    </vehicle>
    <vehicle id="5.16" depart="41.14">
        <route edges="gneE13 gneE10"/>
    </vehicle>
    <vehicle id="2.15" depart="41.54">
        <route edges="gneE7 gneE2 gneE14"/>
    </vehicle>
    <vehicle id="1.14" depart="42.00">
        <route edges="gneE15 gneE3 gneE4 gneE8"/>
    </vehicle>
    <vehicle id="0.12" depart="43.20">
        <route edges="gneE0 gneE4 gneE12"/>
    </vehicle>
    <vehicle id="3.17" depart="43.71">
        <route edges="gneE11 gneE5 gneE2 gneE14"/>
    </vehicle>
    <vehicle id="4.17" depart="43.71">
        <route edges="gneE9 gneE5 gneE1"/>
    </vehicle>
    <vehicle id="5.17" depart="43.71">
        <route edges="gneE13 gneE8"/>
    </vehicle>
    <vehicle id="2.16" depart="44.30">
        <route edges="gneE7 gneE2 gneE14"/>
    </vehicle>
    <vehicle id="1.15" depart="45.00">
        <route edges="gneE15 gneE3 gneE4 gneE5 gneE6"/>
    </vehicle>
    <vehicle id="3.18" depart="46.28">
        <route edges="gneE11 gneE12"/>
    </vehicle>
    <vehicle id="4.18" depart="46.28">
        <route edges="gneE9 gneE10"/>
    </vehicle>
    <vehicle id="5.18" depart="46.28">
        <route edges="gneE13 gneE8"/>
    </vehicle>
    <vehicle id="0.13" depart="46.80">
        <route edges="gneE0 gneE4 gneE8"/>
    </vehicle>
    <vehicle id="2.17" depart="47.07">
        <route edges="gneE7 gneE4 gneE12"/>
    </vehicle>
    <vehicle id="1.16" depart="48.00">
        <route edges="gneE15 gneE3 gneE1"/>
    </vehicle>
    <vehicle id="3.19" depart="48.85">
        <route edges="gneE11 gneE5 gneE6"/>
    </vehicle>
    <vehicle id="4.19" depart="48.85">
        <route edges="gneE9 gneE10"/>
    </vehicle>
    <vehicle id="5.19" depart="48.85">
        <route edges="gneE13 gneE10"/>
    </vehicle>
    <vehicle id="2.18" depart="49.84">
        <route edges="gneE7 gneE1"/>
    </vehicle>
    <vehicle id="0.14" depart="50.40">
        <route edges="gneE0 gneE2 gneE14"/>
    </vehicle>
    <vehicle id="1.17" depart="51.00">
        <route edges="gneE15 gneE3 gneE1"/>
    </vehicle>
    <vehicle id="3.20" depart="51.42">
        <route edges="gneE11 gneE5 gneE1"/>
    </vehicle>
    <vehicle id="4.20" depart="51.42">
        <route edges="gneE9 gneE10"/>
    </vehicle>
    <vehicle id="5.20" depart="51.42">
        <route edges="gneE13 gneE10"/>
    </vehicle>
    <vehicle id="2.19" depart="52.61">
        <route edges="gneE7 gneE4 gneE5 gneE2 gneE14"/>
    </vehicle>
    <vehicle id="3.21" depart="53.99">
        <route edges="gneE11 gneE5 gneE1"/>
    </vehicle>
    <vehicle id="4.21" depart="53.99">
        <route edges="gneE9 gneE10"/>
    </vehicle>
    <vehicle id="5.21" depart="53.99">
        <route edges="gneE13 gneE5 gneE6"/>
    </vehicle>
    <vehicle id="0.15" depart="54.00">
        <route edges="gneE0 gneE4 gneE8"/>
    </vehicle>
    <vehicle id="1.18" depart="54.00">
        <route edges="gneE15 gneE3 gneE1"/>
    </vehicle>
    <vehicle id="2.20" depart="55.38">
        <route edges="gneE7 gneE2 gneE14"/>
    </vehicle>
    <vehicle id="3.22" depart="56.56">
        <route edges="gneE11 gneE5 gneE6"/>
    </vehicle>
    <vehicle id="4.22" depart="56.56">
        <route edges="gneE9 gneE12"/>
    </vehicle>
    <vehicle id="5.22" depart="56.56">
        <route edges="gneE13 gneE8"/>
    </vehicle>
    <vehicle id="1.19" depart="57.00">
        <route edges="gneE15 gneE3 gneE6"/>
    </vehicle>
    <vehicle id="0.16" depart="57.60">
        <route edges="gneE0 gneE2 gneE14"/>
    </vehicle>
    <vehicle id="2.21" depart="58.15">
        <route edges="gneE7 gneE2 gneE14"/>
    </vehicle>
    <vehicle id="3.23" depart="59.13">
        <route edges="gneE11 gneE5 gneE6"/>
    </vehicle>
    <vehicle id="4.23" depart="59.13">
        <route edges="gneE9 gneE5 gneE6"/>
    </vehicle>
    <vehicle id="5.23" depart="59.13">
        <route edges="gneE13 gneE5 gneE2 gneE14"/>
    </vehicle>
    <vehicle id="1.20" depart="60.00">
        <route edges="gneE15 gneE3 gneE6"/>
    </vehicle>
    <vehicle id="2.22" depart="60.92">
        <route edges="gneE7 gneE1"/>
    </vehicle>
    <vehicle id="0.17" depart="61.20">
        <route edges="gneE0 gneE2 gneE14"/>
    </vehicle>
    <vehicle id="3.24" depart="61.70">
        <route edges="gneE11 gneE12"/>
    </vehicle>
    <vehicle id="4.24" depart="61.70">
        <route edges="gneE9 gneE12"/>
    </vehicle>
    <vehicle id="5.24" depart="61.70">
        <route edges="gneE13 gneE10"/>
    </vehicle>
    <vehicle id="1.21" depart="63.00">
        <route edges="gneE15 gneE3 gneE6"/>
    </vehicle>
    <vehicle id="2.23" depart="63.69">
        <route edges="gneE7 gneE2 gneE14"/>
    </vehicle>
    <vehicle id="3.25" depart="64.28">
        <route edges="gneE11 gneE12"/>
    </vehicle>
    <vehicle id="4.25" depart="64.28">
        <route edges="gneE9 gneE10"/>
    </vehicle>
    <vehicle id="5.25" depart="64.28">
        <route edges="gneE13 gneE10"/>
    </vehicle>
    <vehicle id="0.18" depart="64.80">
        <route edges="gneE0 gneE4 gneE10"/>
    </vehicle>
    <vehicle id="1.22" depart="66.00">
        <route edges="gneE15 gneE3 gneE1"/>
    </vehicle>
    <vehicle id="2.24" depart="66.46">
        <route edges="gneE7 gneE4 gneE5 gneE1"/>
    </vehicle>
    <vehicle id="3.26" depart="66.85">
        <route edges="gneE11 gneE12"/>
    </vehicle>
    <vehicle id="4.26" depart="66.85">
        <route edges="gneE9 gneE10"/>
    </vehicle>
    <vehicle id="5.26" depart="66.85">
        <route edges="gneE13 gneE8"/>
    </vehicle>
    <vehicle id="0.19" depart="68.40">
        <route edges="gneE0 gneE4 gneE8"/>
    </vehicle>
    <vehicle id="1.23" depart="69.00">
        <route edges="gneE15 gneE3 gneE4 gneE8"/>
    </vehicle>
    <vehicle id="2.25" depart="69.23">
        <route edges="gneE7 gneE2 gneE14"/>
    </vehicle>
    <vehicle id="3.27" depart="69.42">
        <route edges="gneE11 gneE12"/>
    </vehicle>
    <vehicle id="4.27" depart="69.42">
        <route edges="gneE9 gneE10"/>
    </vehicle>
    <vehicle id="5.27" depart="69.42">
        <route edges="gneE13 gneE8"/>
    </vehicle>
    <vehicle id="3.28" depart="71.99">
        <route edges="gneE11 gneE12"/>
    </vehicle>
    <vehicle id="4.28" depart="71.99">
        <route edges="gneE9 gneE10"/>
    </vehicle>
    <vehicle id="5.28" depart="71.99">
        <route edges="gneE13 gneE10"/>
    </vehicle>
    <vehicle id="2.26" depart="71.99">
        <route edges="gneE7 gneE2 gneE14"/>
    </vehicle>
    <vehicle id="0.20" depart="72.00">
        <route edges="gneE0 gneE4 gneE8"/>
    </vehicle>
    <vehicle id="1.24" depart="72.00">
        <route edges="gneE15 gneE3 gneE6"/>
    </vehicle>
    <vehicle id="3.29" depart="74.56">
        <route edges="gneE11 gneE12"/>
    </vehicle>
    <vehicle id="4.29" depart="74.56">
        <route edges="gneE9 gneE5 gneE1"/>
    </vehicle>
    <vehicle id="5.29" depart="74.56">
        <route edges="gneE13 gneE10"/>
    </vehicle>
    <vehicle id="2.27" depart="74.76">
        <route edges="gneE7 gneE2 gneE14"/>
    </vehicle>
    <vehicle id="1.25" depart="75.00">
        <route edges="gneE15 gneE3 gneE6"/>
    </vehicle>
    <vehicle id="0.21" depart="75.60">
        <route edges="gneE0 gneE4 gneE10"/>
    </vehicle>
    <vehicle id="3.30" depart="77.13">
        <route edges="gneE11 gneE5 gneE1"/>
    </vehicle>
    <vehicle id="4.30" depart="77.13">
        <route edges="gneE9 gneE10"/>
    </vehicle>
    <vehicle id="5.30" depart="77.13">
        <route edges="gneE13 gneE10"/>
    </vehicle>
    <vehicle id="2.28" depart="77.53">
        <route edges="gneE7 gneE2 gneE14"/>
    </vehicle>
    <vehicle id="1.26" depart="78.00">
        <route edges="gneE15 gneE3 gneE6"/>
    </vehicle>
    <vehicle id="0.22" depart="79.20">
        <route edges="gneE0 gneE4 gneE8"/>
    </vehicle>
    <vehicle id="3.31" depart="79.70">
        <route edges="gneE11 gneE5 gneE1"/>
    </vehicle>
    <vehicle id="4.31" depart="79.70">
        <route edges="gneE9 gneE10"/>
    </vehicle>
    <vehicle id="5.31" depart="79.70">
        <route edges="gneE13 gneE8"/>
    </vehicle>
    <vehicle id="2.29" depart="80.30">
        <route edges="gneE7 gneE4 gneE8"/>
    </vehicle>
    <vehicle id="1.27" depart="81.00">
        <route edges="gneE15 gneE3 gneE4 gneE8"/>
    </vehicle>
    <vehicle id="3.32" depart="82.27">
        <route edges="gneE11 gneE8"/>
    </vehicle>
    <vehicle id="4.32" depart="82.27">
        <route edges="gneE9 gneE5 gneE1"/>
    </vehicle>
    <vehicle id="5.32" depart="82.27">
        <route edges="gneE13 gneE10"/>
    </vehicle>
    <vehicle id="0.23" depart="82.80">
        <route edges="gneE0 gneE4 gneE8"/>
    </vehicle>
    <vehicle id="2.30" depart="83.07">
        <route edges="gneE7 gneE4 gneE8"/>
    </vehicle>
    <vehicle id="1.28" depart="84.00">
        <route edges="gneE15 gneE3 gneE6"/>
    </vehicle>
    <vehicle id="3.33" depart="84.84">
        <route edges="gneE11 gneE12"/>
    </vehicle>
    <vehicle id="4.33" depart="84.84">
        <route edges="gneE9 gneE10"/>
    </vehicle>
    <vehicle id="5.33" depart="84.84">
        <route edges="gneE13 gneE8"/>
    </vehicle>
    <vehicle id="2.31" depart="85.84">
        <route edges="gneE7 gneE4 gneE12"/>
    </vehicle>
    <vehicle id="0.24" depart="86.40">
        <route edges="gneE0 gneE2 gneE14"/>
    </vehicle>
    <vehicle id="1.29" depart="87.00">
        <route edges="gneE15 gneE3 gneE1"/>
    </vehicle>
    <vehicle id="3.34" depart="87.41">
        <route edges="gneE11 gneE5 gneE1"/>
    </vehicle>
    <vehicle id="4.34" depart="87.41">
        <route edges="gneE9 gneE5 gneE2 gneE14"/>
    </vehicle>
    <vehicle id="5.34" depart="87.41">
        <route edges="gneE13 gneE8"/>
    </vehicle>
    <vehicle id="2.32" depart="88.61">
        <route edges="gneE7 gneE4 gneE8"/>
    </vehicle>
    <vehicle id="3.35" depart="89.99">
        <route edges="gneE11 gneE12"/>
    </vehicle>
    <vehicle id="4.35" depart="89.99">
        <route edges="gneE9 gneE5 gneE1"/>
    </vehicle>
    <vehicle id="5.35" depart="89.99">
        <route edges="gneE13 gneE8"/>
    </vehicle>
    <vehicle id="0.25" depart="90.00">
        <route edges="gneE0 gneE2 gneE14"/>
    </vehicle>
    <vehicle id="1.30" depart="90.00">
        <route edges="gneE15 gneE3 gneE1"/>
    </vehicle>
    <vehicle id="2.33" depart="91.38">
        <route edges="gneE7 gneE1"/>
    </vehicle>
    <vehicle id="3.36" depart="92.56">
        <route edges="gneE11 gneE12"/>
    </vehicle>
    <vehicle id="4.36" depart="92.56">
        <route edges="gneE9 gneE10"/>
    </vehicle>
    <vehicle id="5.36" depart="92.56">
        <route edges="gneE13 gneE8"/>
    </vehicle>
    <vehicle id="1.31" depart="93.00">
        <route edges="gneE15 gneE3 gneE6"/>
    </vehicle>
    <vehicle id="0.26" depart="93.60">
        <route edges="gneE0 gneE6"/>
    </vehicle>
    <vehicle id="2.34" depart="94.15">
        <route edges="gneE7 gneE1"/>
    </vehicle>
    <vehicle id="3.37" depart="95.13">
        <route edges="gneE11 gneE5 gneE1"/>
    </vehicle>
    <vehicle id="4.37" depart="95.13">
        <route edges="gneE9 gneE10"/>
    </vehicle>
    <vehicle id="5.37" depart="95.13">
        <route edges="gneE13 gneE5 gneE1"/>
    </vehicle>
    <vehicle id="1.32" depart="96.00">
        <route edges="gneE15 gneE3 gneE1"/>
    </vehicle>
    <vehicle id="2.35" depart="96.92">
        <route edges="gneE7 gneE2 gneE14"/>
    </vehicle>
    <vehicle id="0.27" depart="97.20">
        <route edges="gneE0 gneE4 gneE8"/>
    </vehicle>
    <vehicle id="3.38" depart="97.70">
        <route edges="gneE11 gneE8"/>
    </vehicle>
    <vehicle id="4.38" depart="97.70">
        <route edges="gneE9 gneE5 gneE2 gneE14"/>
    </vehicle>
    <vehicle id="5.38" depart="97.70">
        <route edges="gneE13 gneE8"/>
    </vehicle>
    <vehicle id="1.33" depart="99.00">
        <route edges="gneE15 gneE3 gneE6"/>
    </vehicle>
    <vehicle id="2.36" depart="99.68">
        <route edges="gneE7 gneE1"/>
    </vehicle>
    <vehicle id="3.39" depart="100.27">
        <route edges="gneE11 gneE5 gneE2 gneE14"/>
    </vehicle>
    <vehicle id="4.39" depart="100.27">
        <route edges="gneE9 gneE10"/>
    </vehicle>
    <vehicle id="5.39" depart="100.27">
        <route edges="gneE13 gneE8"/>
    </vehicle>
    <vehicle id="0.28" depart="100.80">
        <route edges="gneE0 gneE2 gneE14"/>
    </vehicle>
    <vehicle id="1.34" depart="102.00">
        <route edges="gneE15 gneE3 gneE1"/>
    </vehicle>
    <vehicle id="2.37" depart="102.45">
        <route edges="gneE7 gneE2 gneE14"/>
    </vehicle>
    <vehicle id="3.40" depart="102.84">
        <route edges="gneE11 gneE12"/>
    </vehicle>
    <vehicle id="4.40" depart="102.84">
        <route edges="gneE9 gneE10"/>
    </vehicle>
    <vehicle id="5.40" depart="102.84">
        <route edges="gneE13 gneE10"/>
    </vehicle>
    <vehicle id="0.29" depart="104.40">
        <route edges="gneE0 gneE6"/>
    </vehicle>
    <vehicle id="1.35" depart="105.00">
        <route edges="gneE15 gneE3 gneE6"/>
    </vehicle>
    <vehicle id="2.38" depart="105.22">
        <route edges="gneE7 gneE2 gneE14"/>
    </vehicle>
    <vehicle id="3.41" depart="105.41">
        <route edges="gneE11 gneE5 gneE6"/>
    </vehicle>
    <vehicle id="4.41" depart="105.41">
        <route edges="gneE9 gneE5 gneE2 gneE14"/>
    </vehicle>
    <vehicle id="5.41" depart="105.41">
        <route edges="gneE13 gneE10"/>
    </vehicle>
    <vehicle id="3.42" depart="107.98">
        <route edges="gneE11 gneE5 gneE1"/>
    </vehicle>
    <vehicle id="4.42" depart="107.98">
        <route edges="gneE9 gneE5 gneE6"/>
    </vehicle>
    <vehicle id="5.42" depart="107.98">
        <route edges="gneE13 gneE10"/>
    </vehicle>
    <vehicle id="2.39" depart="107.99">
        <route edges="gneE7 gneE2 gneE14"/>
    </vehicle>
    <vehicle id="0.30" depart="108.00">
        <route edges="gneE0 gneE2 gneE14"/>
    </vehicle>
    <vehicle id="1.36" depart="108.00">
        <route edges="gneE15 gneE3 gneE6"/>
    </vehicle>
    <vehicle id="3.43" depart="110.55">
        <route edges="gneE11 gneE8"/>
    </vehicle>
    <vehicle id="4.43" depart="110.55">
        <route edges="gneE9 gneE10"/>
    </vehicle>
    <vehicle id="5.43" depart="110.55">
        <route edges="gneE13 gneE8"/>
    </vehicle>
    <vehicle id="2.40" depart="110.76">
        <route edges="gneE7 gneE1"/>
    </vehicle>
    <vehicle id="1.37" depart="111.00">
        <route edges="gneE15 gneE3 gneE1"/>
    </vehicle>
    <vehicle id="0.31" depart="111.60">
        <route edges="gneE0 gneE4 gneE12"/>
    </vehicle>
    <vehicle id="3.44" depart="113.12">
        <route edges="gneE11 gneE5 gneE6"/>
    </vehicle>
    <vehicle id="4.44" depart="113.12">
        <route edges="gneE9 gneE10"/>
    </vehicle>
    <vehicle id="5.44" depart="113.12">
        <route edges="gneE13 gneE10"/>
    </vehicle>
    <vehicle id="2.41" depart="113.53">
        <route edges="gneE7 gneE4 gneE8"/>
    </vehicle>
    <vehicle id="1.38" depart="114.00">
        <route edges="gneE15 gneE3 gneE4 gneE8"/>
    </vehicle>
    <vehicle id="0.32" depart="115.20">
        <route edges="gneE0 gneE4 gneE8"/>
    </vehicle>
    <vehicle id="3.45" depart="115.70">
        <route edges="gneE11 gneE5 gneE1"/>
    </vehicle>
    <vehicle id="4.45" depart="115.70">
        <route edges="gneE9 gneE12"/>
    </vehicle>
    <vehicle id="5.45" depart="115.70">
        <route edges="gneE13 gneE8"/>
    </vehicle>
    <vehicle id="2.42" depart="116.30">
        <route edges="gneE7 gneE2 gneE14"/>
    </vehicle>
    <vehicle id="1.39" depart="117.00">
        <route edges="gneE15 gneE3 gneE1"/>
    </vehicle>
    <vehicle id="3.46" depart="118.27">
        <route edges="gneE11 gneE12"/>
    </vehicle>
    <vehicle id="4.46" depart="118.27">
        <route edges="gneE9 gneE5 gneE1"/>
    </vehicle>
    <vehicle id="5.46" depart="118.27">
        <route edges="gneE13 gneE8"/>
    </vehicle>
    <vehicle id="0.33" depart="118.80">
        <route edges="gneE0 gneE4 gneE12"/>
    </vehicle>
    <vehicle id="2.43" depart="119.07">
        <route edges="gneE7 gneE2 gneE14"/>
    </vehicle>
    <vehicle id="1.40" depart="120.00">
        <route edges="gneE15 gneE3 gneE4 gneE5 gneE2 gneE14"/>
    </vehicle>
    <vehicle id="3.47" depart="120.84">
        <route edges="gneE11 gneE5 gneE1"/>
    </vehicle>
    <vehicle id="4.47" depart="120.84">
        <route edges="gneE9 gneE5 gneE2 gneE14"/>
    </vehicle>
    <vehicle id="5.47" depart="120.84">
        <route edges="gneE13 gneE8"/>
    </vehicle>
    <vehicle id="2.44" depart="121.84">
        <route edges="gneE7 gneE2 gneE14"/>
    </vehicle>
    <vehicle id="0.34" depart="122.40">
        <route edges="gneE0 gneE2 gneE14"/>
    </vehicle>
    <vehicle id="1.41" depart="123.00">
        <route edges="gneE15 gneE3 gneE6"/>
    </vehicle>
    <vehicle id="3.48" depart="123.41">
        <route edges="gneE11 gneE12"/>
    </vehicle>
    <vehicle id="4.48" depart="123.41">
        <route edges="gneE9 gneE5 gneE6"/>
    </vehicle>
    <vehicle id="5.48" depart="123.41">
        <route edges="gneE13 gneE10"/>
    </vehicle>
    <vehicle id="2.45" depart="124.61">
        <route edges="gneE7 gneE2 gneE14"/>
    </vehicle>
    <vehicle id="3.49" depart="125.98">
        <route edges="gneE11 gneE12"/>
    </vehicle>
    <vehicle id="4.49" depart="125.98">
        <route edges="gneE9 gneE5 gneE6"/>
    </vehicle>
    <vehicle id="5.49" depart="125.98">
        <route edges="gneE13 gneE5 gneE1"/>
    </vehicle>
    <vehicle id="0.35" depart="126.00">
        <route edges="gneE0 gneE4 gneE12"/>
    </vehicle>
    <vehicle id="1.42" depart="126.00">
        <route edges="gneE15 gneE3 gneE6"/>
    </vehicle>
    <vehicle id="2.46" depart="127.37">
        <route edges="gneE7 gneE1"/>
    </vehicle>
    <vehicle id="3.50" depart="128.55">
        <route edges="gneE11 gneE12"/>
    </vehicle>
    <vehicle id="4.50" depart="128.55">
        <route edges="gneE9 gneE5 gneE2 gneE14"/>
    </vehicle>
    <vehicle id="5.50" depart="128.55">
        <route edges="gneE13 gneE8"/>
    </vehicle>
    <vehicle id="1.43" depart="129.00">
        <route edges="gneE15 gneE3 gneE6"/>
    </vehicle>
    <vehicle id="0.36" depart="129.60">
        <route edges="gneE0 gneE2 gneE14"/>
    </vehicle>
    <vehicle id="2.47" depart="130.14">
        <route edges="gneE7 gneE4 gneE8"/>
    </vehicle>
    <vehicle id="3.51" depart="131.12">
        <route edges="gneE11 gneE8"/>
    </vehicle>
    <vehicle id="4.51" depart="131.12">
        <route edges="gneE9 gneE5 gneE1"/>
    </vehicle>
    <vehicle id="5.51" depart="131.12">
        <route edges="gneE13 gneE8"/>
    </vehicle>
    <vehicle id="1.44" depart="132.00">
        <route edges="gneE15 gneE3 gneE6"/>
    </vehicle>
    <vehicle id="2.48" depart="132.91">
        <route edges="gneE7 gneE1"/>
    </vehicle>
    <vehicle id="0.37" depart="133.20">
        <route edges="gneE0 gneE6"/>
    </vehicle>
    <vehicle id="3.52" depart="133.69">
        <route edges="gneE11 gneE12"/>
    </vehicle>
    <vehicle id="4.52" depart="133.69">
        <route edges="gneE9 gneE5 gneE1"/>
    </vehicle>
    <vehicle id="5.52" depart="133.69">
        <route edges="gneE13 gneE8"/>
    </vehicle>
    <vehicle id="1.45" depart="135.00">
        <route edges="gneE15 gneE3 gneE6"/>
    </vehicle>
    <vehicle id="2.49" depart="135.68">
        <route edges="gneE7 gneE2 gneE14"/>
    </vehicle>
    <vehicle id="3.53" depart="136.26">
        <route edges="gneE11 gneE5 gneE6"/>
    </vehicle>
    <vehicle id="4.53" depart="136.26">
        <route edges="gneE9 gneE10"/>
    </vehicle>
    <vehicle id="5.53" depart="136.26">
        <route edges="gneE13 gneE10"/>
    </vehicle>
    <vehicle id="0.38" depart="136.80">
        <route edges="gneE0 gneE2 gneE14"/>
    </vehicle>
    <vehicle id="1.46" depart="138.00">
        <route edges="gneE15 gneE3 gneE6"/>
    </vehicle>
    <vehicle id="2.50" depart="138.45">
        <route edges="gneE7 gneE2 gneE14"/>
    </vehicle>
    <vehicle id="3.54" depart="138.83">