<?xml version="1.0" encoding="UTF-8"?>

<!-- generated on 03/24/21 15:08:14 by Eclipse SUMO jtrrouter Version 1.3.1
<configuration xmlns:xsi="http://www.w3.org/2001/XMLSchema-instance" xsi:noNamespaceSchemaLocation="http://sumo.dlr.de/xsd/jtrrouterConfiguration.xsd">

    <input>
        <net-file value="Sumo_test.net.xml"/>
        <route-files value="Sumo_test.flows.xml"/>
        <turn-ratio-files value="Sumo_test.turns.xml"/>
    </input>

    <output>
        <output-file value="Sumo_test.rou.xml"/>
    </output>

    <processing>
        <no-internal-links value="true"/>
        <accept-all-destinations value="true"/>
    </processing>

</configuration>
-->

<routes xmlns:xsi="http://www.w3.org/2001/XMLSchema-instance" xsi:noNamespaceSchemaLocation="http://sumo.dlr.de/xsd/routes_file.xsd">
    <vType id="t02" length="15.00" maxSpeed="50.00" probability="0.20" vClass="truck" accel="1.8"/>
    <vehicle id="0.0" type="t02" depart="0.00">
        <route edges="gneE0 gneE4 gneE11"/>
    </vehicle>
    <vehicle id="1.0" type="t02" depart="0.00">
        <route edges="gneE10 gneE5 gneE1"/>
    </vehicle>
    <vehicle id="2.0" type="t02" depart="0.00">
        <route edges="gneE2 gneE1"/>
    </vehicle>
    <vType id="t01" length="5.00" maxSpeed="70.00" probability="0.80" vClass="passenger" accel="0.8"/>
    <vehicle id="3.0" type="t01" depart="0.00">
        <route edges="gneE7 gneE3"/>
    </vehicle>
    <vehicle id="0.1" type="t01" depart="0.01">
        <route edges="gneE0 gneE6"/>
    </vehicle>
    <vehicle id="1.1" type="t01" depart="0.01">
        <route edges="gneE10 gneE5 gneE6"/>
    </vehicle>
    <vehicle id="2.1" type="t02" depart="0.01">
        <route edges="gneE2 gneE1"/>
    </vehicle>
    <vehicle id="3.1" type="t02" depart="0.01">
        <route edges="gneE7 gneE4 gneE11"/>
    </vehicle>
    <vehicle id="0.2" type="t02" depart="0.02">
        <route edges="gneE0 gneE6"/>
    </vehicle>
    <vehicle id="1.2" type="t01" depart="0.02">
        <route edges="gneE10 gneE5 gneE6"/>
    </vehicle>
    <vehicle id="2.2" type="t02" depart="0.02">
        <route edges="gneE2 gneE1"/>
    </vehicle>
    <vehicle id="3.2" type="t02" depart="0.02">
        <route edges="gneE7 gneE4 gneE11"/>
    </vehicle>
    <vehicle id="0.3" type="t01" depart="0.03">
        <route edges="gneE0 gneE6"/>
    </vehicle>
    <vehicle id="1.3" type="t01" depart="0.03">
        <route edges="gneE10 gneE5 gneE1"/>
    </vehicle>
    <vehicle id="2.3" type="t01" depart="0.03">
        <route edges="gneE2 gneE1"/>
    </vehicle>
    <vehicle id="3.3" type="t01" depart="0.03">
        <route edges="gneE7 gneE4 gneE11"/>
    </vehicle>
    <vehicle id="0.4" type="t02" depart="0.04">
        <route edges="gneE0 gneE6"/>
    </vehicle>
    <vehicle id="1.4" type="t02" depart="0.04">
        <route edges="gneE10 gneE5 gneE1"/>
    </vehicle>
    <vehicle id="2.4" type="t01" depart="0.04">
        <route edges="gneE2 gneE1"/>
    </vehicle>
    <vehicle id="3.4" type="t01" depart="0.04">
        <route edges="gneE7 gneE4 gneE11"/>
    </vehicle>
    <vehicle id="0.5" type="t02" depart="0.05">
        <route edges="gneE0 gneE3"/>
    </vehicle>
    <vehicle id="1.5" type="t01" depart="0.05">
        <route edges="gneE10 gneE5 gneE6"/>
    </vehicle>
    <vehicle id="2.5" type="t01" depart="0.05">
        <route edges="gneE2 gneE4 gneE11"/>
    </vehicle>
    <vehicle id="3.5" type="t02" depart="0.05">
        <route edges="gneE7 gneE3"/>
    </vehicle>
    <vehicle id="0.6" type="t01" depart="0.06">
        <route edges="gneE0 gneE6"/>
    </vehicle>
    <vehicle id="1.6" type="t01" depart="0.06">
        <route edges="gneE10 gneE5 gneE3"/>
    </vehicle>
    <vehicle id="2.6" type="t02" depart="0.06">
        <route edges="gneE2 gneE4 gneE11"/>
    </vehicle>
    <vehicle id="3.6" type="t01" depart="0.06">
        <route edges="gneE7 gneE3"/>
    </vehicle>
    <vehicle id="0.7" type="t02" depart="0.07">
        <route edges="gneE0 gneE1"/>
    </vehicle>
    <vehicle id="1.7" type="t02" depart="0.07">
        <route edges="gneE10 gneE5 gneE6"/>
    </vehicle>
    <vehicle id="2.7" type="t01" depart="0.07">
        <route edges="gneE2 gneE4 gneE11"/>
    </vehicle>
    <vehicle id="3.7" type="t01" depart="0.07">
        <route edges="gneE7 gneE4 gneE11"/>
    </vehicle>
    <vehicle id="0.8" type="t01" depart="0.08">
        <route edges="gneE0 gneE3"/>
    </vehicle>
    <vehicle id="1.8" type="t02" depart="0.08">
        <route edges="gneE10 gneE5 gneE6"/>
    </vehicle>
    <vehicle id="2.8" type="t01" depart="0.08">
        <route edges="gneE2 gneE1"/>
    </vehicle>
    <vehicle id="3.8" type="t02" depart="0.08">
        <route edges="gneE7 gneE4 gneE11"/>
    </vehicle>
    <vehicle id="0.9" type="t01" depart="0.09">
        <route edges="gneE0 gneE3"/>
    </vehicle>
    <vehicle id="1.9" type="t01" depart="0.09">
        <route edges="gneE10 gneE5 gneE6"/>
    </vehicle>
    <vehicle id="2.9" type="t02" depart="0.09">
        <route edges="gneE2 gneE1"/>
    </vehicle>
    <vehicle id="3.9" type="t02" depart="0.09">
        <route edges="gneE7 gneE4 gneE11"/>
    </vehicle>
    <vehicle id="0.10" type="t02" depart="0.10">
        <route edges="gneE0 gneE3"/>
    </vehicle>
    <vehicle id="1.10" type="t02" depart="0.10">
        <route edges="gneE10 gneE5 gneE6"/>
    </vehicle>
    <vehicle id="2.10" type="t02" depart="0.10">
        <route edges="gneE2 gneE6"/>
    </vehicle>
    <vehicle id="3.10" type="t01" depart="0.10">
        <route edges="gneE7 gneE4 gneE11"/>
    </vehicle>
    <vehicle id="0.11" type="t01" depart="0.11">
        <route edges="gneE0 gneE3"/>
    </vehicle>
    <vehicle id="1.11" type="t01" depart="0.11">
        <route edges="gneE10 gneE5 gneE1"/>
    </vehicle>
    <vehicle id="2.11" type="t02" depart="0.11">
        <route edges="gneE2 gneE4 gneE11"/>
    </vehicle>
    <vehicle id="3.11" type="t01" depart="0.11">
        <route edges="gneE7 gneE4 gneE11"/>
    </vehicle>
    <vehicle id="0.12" type="t01" depart="0.12">
        <route edges="gneE0 gneE3"/>
    </vehicle>
    <vehicle id="1.12" type="t02" depart="0.12">
        <route edges="gneE10 gneE5 gneE6"/>
    </vehicle>
    <vehicle id="2.12" type="t01" depart="0.12">
        <route edges="gneE2 gneE1"/>
    </vehicle>
    <vehicle id="3.12" type="t01" depart="0.12">
        <route edges="gneE7 gneE4 gneE11"/>
    </vehicle>
    <vehicle id="0.13" type="t02" depart="0.13">
        <route edges="gneE0 gneE6"/>
    </vehicle>
    <vehicle id="1.13" type="t01" depart="0.13">
        <route edges="gneE10 gneE5 gneE6"/>
    </vehicle>
    <vehicle id="2.13" type="t02" depart="0.13">
        <route edges="gneE2 gneE4 gneE11"/>
    </vehicle>
    <vehicle id="3.13" type="t01" depart="0.13">
        <route edges="gneE7 gneE3"/>
    </vehicle>
    <vehicle id="0.14" type="t01" depart="0.14">
        <route edges="gneE0 gneE3"/>
    </vehicle>
    <vehicle id="1.14" type="t02" depart="0.14">
        <route edges="gneE10 gneE5 gneE6"/>
    </vehicle>
    <vehicle id="2.14" type="t01" depart="0.14">
        <route edges="gneE2 gneE6"/>
    </vehicle>
    <vehicle id="3.14" type="t01" depart="0.14">
        <route edges="gneE7 gneE1"/>
    </vehicle>
    <vehicle id="0.15" type="t02" depart="0.15">
        <route edges="gneE0 gneE1"/>
    </vehicle>
    <vehicle id="1.15" type="t01" depart="0.15">
        <route edges="gneE10 gneE5 gneE1"/>
    </vehicle>
    <vehicle id="2.15" type="t01" depart="0.15">
        <route edges="gneE2 gneE4 gneE11"/>
    </vehicle>
    <vehicle id="3.15" type="t02" depart="0.15">
        <route edges="gneE7 gneE4 gneE11"/>
    </vehicle>
    <vehicle id="0.16" type="t01" depart="0.16">
        <route edges="gneE0 gneE3"/>
    </vehicle>
    <vehicle id="1.16" type="t01" depart="0.16">
        <route edges="gneE10 gneE5 gneE1"/>
    </vehicle>
    <vehicle id="2.16" type="t02" depart="0.16">
        <route edges="gneE2 gneE1"/>
    </vehicle>
    <vehicle id="3.16" type="t02" depart="0.16">
        <route edges="gneE7 gneE4 gneE11"/>
    </vehicle>
    <vehicle id="0.17" type="t02" depart="0.17">
        <route edges="gneE0 gneE3"/>
    </vehicle>
    <vehicle id="1.17" type="t01" depart="0.17">
        <route edges="gneE10 gneE5 gneE1"/>
    </vehicle>
    <vehicle id="2.17" type="t01" depart="0.17">
        <route edges="gneE2 gneE4 gneE11"/>
    </vehicle>
    <vehicle id="3.17" type="t02" depart="0.17">
        <route edges="gneE7 gneE4 gneE11"/>
    </vehicle>
    <vehicle id="0.18" type="t01" depart="0.18">
        <route edges="gneE0 gneE3"/>
    </vehicle>
    <vehicle id="1.18" type="t01" depart="0.18">
        <route edges="gneE10 gneE5 gneE6"/>
    </vehicle>
    <vehicle id="2.18" type="t02" depart="0.18">
        <route edges="gneE2 gneE1"/>
    </vehicle>
    <vehicle id="3.18" type="t02" depart="0.18">
        <route edges="gneE7 gneE3"/>
    </vehicle>
    <vehicle id="0.19" type="t02" depart="0.19">
        <route edges="gneE0 gneE3"/>
    </vehicle>
    <vehicle id="1.19" type="t02" depart="0.19">
        <route edges="gneE10 gneE5 gneE1"/>
    </vehicle>
    <vehicle id="2.19" type="t01" depart="0.19">
        <route edges="gneE2 gneE1"/>
    </vehicle>
    <vehicle id="3.19" type="t01" depart="0.19">
        <route edges="gneE7 gneE4 gneE11"/>
    </vehicle>
    <vehicle id="0.20" type="t02" depart="0.20">
        <route edges="gneE0 gneE3"/>
    </vehicle>
    <vehicle id="1.20" type="t02" depart="0.20">
        <route edges="gneE10 gneE5 gneE3"/>
    </vehicle>
    <vehicle id="2.20" type="t02" depart="0.20">
        <route edges="gneE2 gneE6"/>
    </vehicle>
    <vehicle id="3.20" type="t02" depart="0.20">
        <route edges="gneE7 gneE3"/>
    </vehicle>
    <vehicle id="0.21" type="t02" depart="0.21">
        <route edges="gneE0 gneE3"/>
    </vehicle>
    <vehicle id="1.21" type="t02" depart="0.21">
        <route edges="gneE10 gneE5 gneE6"/>
    </vehicle>
    <vehicle id="2.21" type="t02" depart="0.21">
        <route edges="gneE2 gneE1"/>
    </vehicle>
    <vehicle id="3.21" type="t02" depart="0.21">
        <route edges="gneE7 gneE4 gneE11"/>
    </vehicle>
    <vehicle id="0.22" type="t02" depart="0.22">
        <route edges="gneE0 gneE3"/>
    </vehicle>
    <vehicle id="1.22" type="t01" depart="0.22">
        <route edges="gneE10 gneE5 gneE1"/>
    </vehicle>
    <vehicle id="2.22" type="t02" depart="0.22">
        <route edges="gneE2 gneE1"/>
    </vehicle>
    <vehicle id="3.22" type="t02" depart="0.22">
        <route edges="gneE7 gneE4 gneE11"/>
    </vehicle>
    <vehicle id="0.23" type="t01" depart="0.23">
        <route edges="gneE0 gneE3"/>
    </vehicle>
    <vehicle id="1.23" type="t02" depart="0.23">
        <route edges="gneE10 gneE5 gneE6"/>
    </vehicle>
    <vehicle id="2.23" type="t01" depart="0.23">
        <route edges="gneE2 gneE4 gneE11"/>
    </vehicle>
    <vehicle id="3.23" type="t01" depart="0.23">
        <route edges="gneE7 gneE4 gneE11"/>
    </vehicle>
    <vehicle id="0.24" type="t02" depart="0.24">
        <route edges="gneE0 gneE6"/>
    </vehicle>
    <vehicle id="1.24" type="t01" depart="0.24">
        <route edges="gneE10 gneE5 gneE6"/>
    </vehicle>
    <vehicle id="2.24" type="t02" depart="0.24">
        <route edges="gneE2 gneE6"/>
    </vehicle>
    <vehicle id="3.24" type="t02" depart="0.24">
        <route edges="gneE7 gneE4 gneE11"/>
    </vehicle>
    <vehicle id="0.25" type="t01" depart="0.25">
        <route edges="gneE0 gneE3"/>
    </vehicle>
    <vehicle id="1.25" type="t02" depart="0.25">
        <route edges="gneE10 gneE5 gneE3"/>
    </vehicle>
    <vehicle id="2.25" type="t01" depart="0.25">
        <route edges="gneE2 gneE1"/>
    </vehicle>
    <vehicle id="3.25" type="t01" depart="0.25">
        <route edges="gneE7 gneE3"/>
    </vehicle>
    <vehicle id="0.26" type="t01" depart="0.26">
        <route edges="gneE0 gneE3"/>
    </vehicle>
    <vehicle id="1.26" type="t01" depart="0.26">
        <route edges="gneE10 gneE5 gneE6"/>
    </vehicle>
    <vehicle id="2.26" type="t01" depart="0.26">
        <route edges="gneE2 gneE4 gneE11"/>
    </vehicle>
    <vehicle id="3.26" type="t02" depart="0.26">
        <route edges="gneE7 gneE4 gneE11"/>
    </vehicle>
    <vehicle id="0.27" type="t01" depart="0.27">
        <route edges="gneE0 gneE1"/>
    </vehicle>
    <vehicle id="1.27" type="t02" depart="0.27">
        <route edges="gneE10 gneE5 gneE6"/>
    </vehicle>
    <vehicle id="2.27" type="t01" depart="0.27">
        <route edges="gneE2 gneE6"/>
    </vehicle>
    <vehicle id="3.27" type="t01" depart="0.27">
        <route edges="gneE7 gneE4 gneE11"/>
    </vehicle>
    <vehicle id="0.28" type="t02" depart="0.28">
        <route edges="gneE0 gneE3"/>
    </vehicle>
    <vehicle id="1.28" type="t01" depart="0.28">
        <route edges="gneE10 gneE5 gneE6"/>
    </vehicle>
    <vehicle id="2.28" type="t01" depart="0.28">
        <route edges="gneE2 gneE1"/>
    </vehicle>
    <vehicle id="3.28" type="t01" depart="0.28">
        <route edges="gneE7 gneE3"/>
    </vehicle>
    <vehicle id="0.29" type="t01" depart="0.29">
        <route edges="gneE0 gneE3"/>
    </vehicle>
    <vehicle id="1.29" type="t01" depart="0.29">
        <route edges="gneE10 gneE5 gneE6"/>
    </vehicle>
    <vehicle id="2.29" type="t01" depart="0.29">
        <route edges="gneE2 gneE6"/>
    </vehicle>
    <vehicle id="3.29" type="t02" depart="0.29">
        <route edges="gneE7 gneE4 gneE11"/>
    </vehicle>
    <vehicle id="0.30" type="t02" depart="0.30">
        <route edges="gneE0 gneE6"/>
    </vehicle>
    <vehicle id="1.30" type="t02" depart="0.30">
        <route edges="gneE10 gneE5 gneE6"/>
    </vehicle>
    <vehicle id="2.30" type="t01" depart="0.30">
        <route edges="gneE2 gneE4 gneE11"/>
    </vehicle>
    <vehicle id="3.30" type="t01" depart="0.30">
        <route edges="gneE7 gneE4 gneE11"/>
    </vehicle>
    <vehicle id="0.31" type="t01" depart="0.31">
        <route edges="gneE0 gneE6"/>
    </vehicle>
    <vehicle id="1.31" type="t02" depart="0.31">
        <route edges="gneE10 gneE5 gneE6"/>
    </vehicle>
    <vehicle id="2.31" type="t02" depart="0.31">
        <route edges="gneE2 gneE1"/>
    </vehicle>
    <vehicle id="3.31" type="t01" depart="0.31">
        <route edges="gneE7 gneE1"/>
    </vehicle>
    <vehicle id="0.32" type="t02" depart="0.32">
        <route edges="gneE0 gneE3"/>
    </vehicle>
    <vehicle id="1.32" type="t02" depart="0.32">
        <route edges="gneE10 gneE5 gneE1"/>
    </vehicle>
    <vehicle id="2.32" type="t02" depart="0.32">
        <route edges="gneE2 gneE1"/>
    </vehicle>
    <vehicle id="3.32" type="t01" depart="0.32">
        <route edges="gneE7 gneE4 gneE11"/>
    </vehicle>
    <vehicle id="0.33" type="t01" depart="0.33">
        <route edges="gneE0 gneE1"/>
    </vehicle>
    <vehicle id="1.33" type="t01" depart="0.33">
        <route edges="gneE10 gneE5 gneE3"/>
    </vehicle>
    <vehicle id="2.33" type="t01" depart="0.33">
        <route edges="gneE2 gneE1"/>
    </vehicle>
    <vehicle id="3.33" type="t01" depart="0.33">
        <route edges="gneE7 gneE3"/>
    </vehicle>
    <vehicle id="0.34" type="t01" depart="0.34">
        <route edges="gneE0 gneE4 gneE11"/>
    </vehicle>
    <vehicle id="1.34" type="t02" depart="0.34">
        <route edges="gneE10 gneE5 gneE1"/>
    </vehicle>
    <vehicle id="2.34" type="t02" depart="0.34">
        <route edges="gneE2 gneE4 gneE11"/>
    </vehicle>
    <vehicle id="3.34" type="t02" depart="0.34">
        <route edges="gneE7 gneE3"/>
    </vehicle>
    <vehicle id="0.35" type="t01" depart="0.35">
        <route edges="gneE0 gneE6"/>
    </vehicle>
    <vehicle id="1.35" type="t02" depart="0.35">
        <route edges="gneE10 gneE5 gneE3"/>
    </vehicle>
    <vehicle id="2.35" type="t01" depart="0.35">
        <route edges="gneE2 gneE6"/>
    </vehicle>
    <vehicle id="3.35" type="t01" depart="0.35">
        <route edges="gneE7 gneE4 gneE11"/>
    </vehicle>
    <vehicle id="0.36" type="t01" depart="0.36">
        <route edges="gneE0 gneE3"/>
    </vehicle>
    <vehicle id="1.36" type="t02" depart="0.36">
        <route edges="gneE10 gneE5 gneE6"/>
    </vehicle>
    <vehicle id="2.36" type="t01" depart="0.36">
        <route edges="gneE2 gneE6"/>
    </vehicle>
    <vehicle id="3.36" type="t02" depart="0.36">
        <route edges="gneE7 gneE3"/>
    </vehicle>
    <vehicle id="0.37" type="t02" depart="0.37">
        <route edges="gneE0 gneE4 gneE11"/>
    </vehicle>
    <vehicle id="1.37" type="t02" depart="0.37">
        <route edges="gneE10 gneE5 gneE6"/>
    </vehicle>
    <vehicle id="2.37" type="t01" depart="0.37">
        <route edges="gneE2 gneE4 gneE11"/>
    </vehicle>
    <vehicle id="3.37" type="t02" depart="0.37">
        <route edges="gneE7 gneE4 gneE11"/>
    </vehicle>
    <vehicle id="0.38" type="t01" depart="0.38">
        <route edges="gneE0 gneE3"/>
    </vehicle>
    <vehicle id="1.38" type="t02" depart="0.38">
        <route edges="gneE10 gneE5 gneE3"/>
    </vehicle>
    <vehicle id="2.38" type="t02" depart="0.38">
        <route edges="gneE2 gneE1"/>
    </vehicle>
    <vehicle id="3.38" type="t01" depart="0.38">
        <route edges="gneE7 gneE4 gneE11"/>
    </vehicle>
    <vehicle id="0.39" type="t01" depart="0.39">
        <route edges="gneE0 gneE3"/>
    </vehicle>
    <vehicle id="1.39" type="t01" depart="0.39">
        <route edges="gneE10 gneE5 gneE6"/>
    </vehicle>
    <vehicle id="2.39" type="t01" depart="0.39">
        <route edges="gneE2 gneE4 gneE11"/>
    </vehicle>
    <vehicle id="3.39" type="t02" depart="0.39">
        <route edges="gneE7 gneE1"/>
    </vehicle>
    <vehicle id="0.40" type="t01" depart="0.40">
        <route edges="gneE0 gneE4 gneE11"/>
    </vehicle>
    <vehicle id="1.40" type="t02" depart="0.40">
        <route edges="gneE10 gneE5 gneE6"/>
    </vehicle>
    <vehicle id="2.40" type="t01" depart="0.40">
        <route edges="gneE2 gneE4 gneE11"/>
    </vehicle>
    <vehicle id="3.40" type="t02" depart="0.40">
        <route edges="gneE7 gneE1"/>
    </vehicle>
    <vehicle id="0.41" type="t02" depart="0.41">
        <route edges="gneE0 gneE3"/>
    </vehicle>
    <vehicle id="1.41" type="t02" depart="0.41">
        <route edges="gneE10 gneE5 gneE1"/>
    </vehicle>
    <vehicle id="2.41" type="t01" depart="0.41">
        <route edges="gneE2 gneE6"/>
    </vehicle>
    <vehicle id="3.41" type="t01" depart="0.41">
        <route edges="gneE7 gneE3"/>
    </vehicle>
    <vehicle id="0.42" type="t01" depart="0.42">
        <route edges="gneE0 gneE3"/>
    </vehicle>
    <vehicle id="1.42" type="t01" depart="0.42">
        <route edges="gneE10 gneE5 gneE1"/>
    </vehicle>
    <vehicle id="2.42" type="t02" depart="0.42">
        <route edges="gneE2 gneE6"/>
    </vehicle>
    <vehicle id="3.42" type="t02" depart="0.42">
        <route edges="gneE7 gneE4 gneE11"/>
    </vehicle>
    <vehicle id="0.43" type="t02" depart="0.43">
        <route edges="gneE0 gneE3"/>
    </vehicle>
    <vehicle id="1.43" type="t02" depart="0.43">
        <route edges="gneE10 gneE5 gneE6"/>
    </vehicle>
    <vehicle id="2.43" type="t01" depart="0.43">
        <route edges="gneE2 gneE1"/>
    </vehicle>
    <vehicle id="3.43" type="t01" depart="0.43">
        <route edges="gneE7 gneE4 gneE11"/>
    </vehicle>
    <vehicle id="0.44" type="t01" depart="0.44">
        <route edges="gneE0 gneE4 gneE11"/>
    </vehicle>
    <vehicle id="1.44" type="t01" depart="0.44">
        <route edges="gneE10 gneE5 gneE6"/>
    </vehicle>
    <vehicle id="2.44" type="t01" depart="0.44">
        <route edges="gneE2 gneE1"/>
    </vehicle>
    <vehicle id="3.44" type="t02" depart="0.44">
        <route edges="gneE7 gneE4 gneE11"/>
    </vehicle>
    <vehicle id="0.45" type="t02" depart="0.45">
        <route edges="gneE0 gneE3"/>
    </vehicle>
    <vehicle id="1.45" type="t01" depart="0.45">
        <route edges="gneE10 gneE5 gneE6"/>
    </vehicle>
    <vehicle id="2.45" type="t01" depart="0.45">
        <route edges="gneE2 gneE1"/>
    </vehicle>
    <vehicle id="3.45" type="t01" depart="0.45">
        <route edges="gneE7 gneE3"/>
    </vehicle>
    <vehicle id="0.46" type="t02" depart="0.46">
        <route edges="gneE0 gneE3"/>
    </vehicle>
    <vehicle id="1.46" type="t02" depart="0.46">
        <route edges="gneE10 gneE5 gneE1"/>
    </vehicle>
    <vehicle id="2.46" type="t01" depart="0.46">
        <route edges="gneE2 gneE4 gneE11"/>
    </vehicle>
    <vehicle id="3.46" type="t01" depart="0.46">
        <route edges="gneE7 gneE4 gneE11"/>
    </vehicle>
    <vehicle id="0.47" type="t02" depart="0.47">
        <route edges="gneE0 gneE3"/>
    </vehicle>
    <vehicle id="1.47" type="t01" depart="0.47">
        <route edges="gneE10 gneE5 gneE1"/>
    </vehicle>
    <vehicle id="2.47" type="t02" depart="0.47">
        <route edges="gneE2 gneE1"/>
    </vehicle>
    <vehicle id="3.47" type="t01" depart="0.47">
        <route edges="gneE7 gneE4 gneE11"/>
    </vehicle>
    <vehicle id="0.48" type="t02" depart="0.48">
        <route edges="gneE0 gneE3"/>
    </vehicle>
    <vehicle id="1.48" type="t01" depart="0.48">
        <route edges="gneE10 gneE5 gneE6"/>
    </vehicle>
    <vehicle id="2.48" type="t02" depart="0.48">
        <route edges="gneE2 gneE4 gneE11"/>
    </vehicle>
    <vehicle id="3.48" type="t01" depart="0.48">
        <route edges="gneE7 gneE4 gneE11"/>
    </vehicle>
    <vehicle id="0.49" type="t02" depart="0.49">
        <route edges="gneE0 gneE1"/>
    </vehicle>
    <vehicle id="1.49" type="t01" depart="0.49">
        <route edges="gneE10 gneE5 gneE3"/>
    </vehicle>
    <vehicle id="2.49" type="t02" depart="0.49">
        <route edges="gneE2 gneE4 gneE11"/>
    </vehicle>
    <vehicle id="3.49" type="t02" depart="0.49">
        <route edges="gneE7 gneE3"/>
    </vehicle>
    <vehicle id="0.50" type="t02" depart="0.50">
        <route edges="gneE0 gneE3"/>
    </vehicle>
    <vehicle id="1.50" type="t02" depart="0.50">
        <route edges="gneE10 gneE5 gneE3"/>
    </vehicle>
    <vehicle id="2.50" type="t02" depart="0.50">
        <route edges="gneE2 gneE6"/>
    </vehicle>
    <vehicle id="3.50" type="t02" depart="0.50">
        <route edges="gneE7 gneE1"/>
    </vehicle>
    <vehicle id="0.51" type="t01" depart="0.51">
        <route edges="gneE0 gneE3"/>
    </vehicle>
    <vehicle id="1.51" type="t02" depart="0.51">
        <route edges="gneE10 gneE5 gneE6"/>
    </vehicle>
    <vehicle id="2.51" type="t01" depart="0.51">
        <route edges="gneE2 gneE4 gneE11"/>
    </vehicle>
    <vehicle id="3.51" type="t02" depart="0.51">
        <route edges="gneE7 gneE4 gneE11"/>
    </vehicle>
    <vehicle id="0.52" type="t01" depart="0.52">
        <route edges="gneE0 gneE3"/>
    </vehicle>
    <vehicle id="1.52" type="t01" depart="0.52">
        <route edges="gneE10 gneE5 gneE1"/>
    </vehicle>
    <vehicle id="2.52" type="t02" depart="0.52">
        <route edges="gneE2 gneE4 gneE11"/>
    </vehicle>
    <vehicle id="3.52" type="t02" depart="0.52">
        <route edges="gneE7 gneE3"/>
    </vehicle>
    <vehicle id="0.53" type="t02" depart="0.53">
        <route edges="gneE0 gneE3"/>
    </vehicle>
    <vehicle id="1.53" type="t01" depart="0.53">
        <route edges="gneE10 gneE5 gneE6"/>
    </vehicle>
    <vehicle id="2.53" type="t02" depart="0.53">
        <route edges="gneE2 gneE1"/>
    </vehicle>
    <vehicle id="3.53" type="t02" depart="0.53">
        <route edges="gneE7 gneE3"/>
    </vehicle>
    <vehicle id="0.54" type="t01" depart="0.54">
        <route edges="gneE0 gneE3"/>
    </vehicle>
    <vehicle id="1.54" type="t02" depart="0.54">
        <route edges="gneE10 gneE5 gneE3"/>
    </vehicle>
    <vehicle id="2.54" type="t01" depart="0.54">
        <route edges="gneE2 gneE1"/>
    </vehicle>
    <vehicle id="3.54" type="t02" depart="0.54">
        <route edges="gneE7 gneE3"/>
    </vehicle>
    <vehicle id="0.55" type="t02" depart="0.55">
        <route edges="gneE0 gneE3"/>
    </vehicle>
    <vehicle id="1.55" type="t01" depart="0.55">
        <route edges="gneE10 gneE5 gneE6"/>
    </vehicle>
    <vehicle id="2.55" type="t01" depart="0.55">
        <route edges="gneE2 gneE4 gneE11"/>
    </vehicle>
    <vehicle id="3.55" type="t02" depart="0.55">
        <route edges="gneE7 gneE3"/>
    </vehicle>
    <vehicle id="0.56" type="t01" depart="0.56">
        <route edges="gneE0 gneE3"/>
    </vehicle>
    <vehicle id="1.56" type="t01" depart="0.56">
        <route edges="gneE10 gneE5 gneE3"/>
    </vehicle>
    <vehicle id="2.56" type="t01" depart="0.56">
        <route edges="gneE2 gneE1"/>
    </vehicle>
    <vehicle id="3.56" type="t02" depart="0.56">
        <route edges="gneE7 gneE3"/>
    </vehicle>
    <vehicle id="0.57" type="t02" depart="0.57">
        <route edges="gneE0 gneE3"/>
    </vehicle>
    <vehicle id="1.57" type="t02" depart="0.57">
        <route edges="gneE10 gneE5 gneE6"/>
    </vehicle>
    <vehicle id="2.57" type="t02" depart="0.57">
        <route edges="gneE2 gneE6"/>
    </vehicle>
    <vehicle id="3.57" type="t01" depart="0.57">
        <route edges="gneE7 gneE4 gneE11"/>
    </vehicle>
    <vehicle id="0.58" type="t01" depart="0.58">
        <route edges="gneE0 gneE4 gneE11"/>
    </vehicle>
    <vehicle id="1.58" type="t02" depart="0.58">
        <route edges="gneE10 gneE5 gneE3"/>
    </vehicle>
    <vehicle id="2.58" type="t01" depart="0.58">
        <route edges="gneE2 gneE4 gneE11"/>
    </vehicle>
    <vehicle id="3.58" type="t02" depart="0.58">
        <route edges="gneE7 gneE3"/>
    </vehicle>
    <vehicle id="0.59" type="t01" depart="0.59">
        <route edges="gneE0 gneE3"/>
    </vehicle>
    <vehicle id="1.59" type="t01" depart="0.59">
        <route edges="gneE10 gneE5 gneE1"/>
    </vehicle>
    <vehicle id="2.59" type="t01" depart="0.59">
        <route edges="gneE2 gneE6"/>
    </vehicle>
    <vehicle id="3.59" type="t02" depart="0.59">
        <route edges="gneE7 gneE3"/>
    </vehicle>
    <vehicle id="0.60" type="t01" depart="0.60">
        <route edges="gneE0 gneE3"/>
    </vehicle>
    <vehicle id="1.60" type="t02" depart="0.60">
        <route edges="gneE10 gneE5 gneE6"/>
    </vehicle>
    <vehicle id="2.60" type="t01" depart="0.60">
        <route edges="gneE2 gneE6"/>
    </vehicle>
    <vehicle id="3.60" type="t02" depart="0.60">
        <route edges="gneE7 gneE1"/>
    </vehicle>
    <vehicle id="0.61" type="t02" depart="0.61">
        <route edges="gneE0 gneE3"/>
    </vehicle>
    <vehicle id="1.61" type="t01" depart="0.61">
        <route edges="gneE10 gneE5 gneE3"/>
    </vehicle>
    <vehicle id="2.61" type="t01" depart="0.61">
        <route edges="gneE2 gneE4 gneE11"/>
    </vehicle>
    <vehicle id="3.61" type="t01" depart="0.61">
        <route edges="gneE7 gneE4 gneE11"/>
    </vehicle>
    <vehicle id="0.62" type="t02" depart="0.62">
        <route edges="gneE0 gneE3"/>
    </vehicle>
    <vehicle id="1.62" type="t02" depart="0.62">
        <route edges="gneE10 gneE5 gneE6"/>
    </vehicle>
    <vehicle id="2.62" type="t02" depart="0.62">
        <route edges="gneE2 gneE4 gneE11"/>
    </vehicle>
    <vehicle id="3.62" type="t02" depart="0.62">
        <route edges="gneE7 gneE3"/>
    </vehicle>
    <vehicle id="0.63" type="t01" depart="0.63">
        <route edges="gneE0 gneE3"/>
    </vehicle>
    <vehicle id="1.63" type="t02" depart="0.63">
        <route edges="gneE10 gneE5 gneE3"/>
    </vehicle>
    <vehicle id="2.63" type="t01" depart="0.63">
        <route edges="gneE2 gneE1"/>
    </vehicle>
    <vehicle id="3.63" type="t01" depart="0.63">
        <route edges="gneE7 gneE4 gneE11"/>
    </vehicle>
    <vehicle id="0.64" type="t01" depart="0.64">
        <route edges="gneE0 gneE3"/>
    </vehicle>
    <vehicle id="1.64" type="t01" depart="0.64">
        <route edges="gneE10 gneE5 gneE1"/>
    </vehicle>
    <vehicle id="2.64" type="t02" depart="0.64">
        <route edges="gneE2 gneE4 gneE11"/>
    </vehicle>
    <vehicle id="3.64" type="t02" depart="0.64">
        <route edges="gneE7 gneE4 gneE11"/>
    </vehicle>
    <vehicle id="0.65" type="t02" depart="0.65">
        <route edges="gneE0 gneE6"/>
    </vehicle>
    <vehicle id="1.65" type="t02" depart="0.65">
        <route edges="gneE10 gneE5 gneE1"/>
    </vehicle>
    <vehicle id="2.65" type="t02" depart="0.65">
        <route edges="gneE2 gneE1"/>
    </vehicle>
    <vehicle id="3.65" type="t01" depart="0.65">
        <route edges="gneE7 gneE3"/>
    </vehicle>
    <vehicle id="0.66" type="t01" depart="0.66">
        <route edges="gneE0 gneE3"/>
    </vehicle>
    <vehicle id="1.66" type="t01" depart="0.66">
        <route edges="gneE10 gneE5 gneE3"/>
    </vehicle>
    <vehicle id="2.66" type="t02" depart="0.66">
        <route edges="gneE2 gneE4 gneE11"/>
    </vehicle>
    <vehicle id="3.66" type="t01" depart="0.66">
        <route edges="gneE7 gneE3"/>
    </vehicle>
    <vehicle id="0.67" type="t01" depart="0.67">
        <route edges="gneE0 gneE3"/>
    </vehicle>
    <vehicle id="1.67" type="t01" depart="0.67">
        <route edges="gneE10 gneE5 gneE3"/>
    </vehicle>
    <vehicle id="2.67" type="t01" depart="0.67">
        <route edges="gneE2 gneE4 gneE11"/>
    </vehicle>
    <vehicle id="3.67" type="t02" depart="0.67">
        <route edges="gneE7 gneE3"/>
    </vehicle>
    <vehicle id="0.68" type="t01" depart="0.68">
        <route edges="gneE0 gneE4 gneE11"/>
    </vehicle>
    <vehicle id="1.68" type="t01" depart="0.68">
        <route edges="gneE10 gneE5 gneE6"/>
    </vehicle>
    <vehicle id="2.68" type="t02" depart="0.68">
        <route edges="gneE2 gneE1"/>
    </vehicle>
    <vehicle id="3.68" type="t02" depart="0.68">
        <route edges="gneE7 gneE4 gneE11"/>
    </vehicle>
    <vehicle id="0.69" type="t02" depart="0.69">
        <route edges="gneE0 gneE1"/>
    </vehicle>
    <vehicle id="1.69" type="t01" depart="0.69">