<flowdefs>

	<vType id="t01" vClass="passenger" accel="0.8" length="5" maxSpeed="70" probability="0.8"/>
    <vType id="t02" vClass="truck" accel="1.8" length="15" maxSpeed="50" probability="0.2"/>
    <vTypeDistribution id="typedist1" vTypes="t01 t02"/>

	<flow id="0" from="gneE0" begin="0" end="1" number="100" type="typedist1"/>
	<flow id="1" from="gneE10" begin="0" end="1" number="100" type="typedist1"/>
	<flow id="2" from="gneE2" begin="0" end="1" number="100" type="typedist1"/>
	<flow id="3" from="gneE7" begin="0" end="1" number="100" type="typedist1"/>

</flowdefs>