<?xml version="1.0" encoding="UTF-8"?>

<!-- generated on 2025-05-26 16:46:18 by Eclipse SUMO netedit Version 1.22.0
<neteditConfiguration xmlns:xsi="http://www.w3.org/2001/XMLSchema-instance" xsi:noNamespaceSchemaLocation="http://sumo.dlr.de/xsd/neteditConfiguration.xsd">

    <input>
        <sumocfg-file value="D:\交通\sumo\SSimEx.sumocfg"/>
        <sumo-net-file value="D:\交通\sumo\SSimNet.net.xml"/>
    </input>

    <output>
        <output-file value="D:\交通\sumo\SSimNet.net.xml"/>
        <output.street-names value="true"/>
    </output>

    <processing>
        <geometry.min-radius.fix.railways value="false"/>
        <geometry.max-grade.fix value="false"/>
        <offset.disable-normalization value="true"/>
        <lefthand value="0"/>
    </processing>

    <junctions>
        <no-internal-links value="false"/>
        <no-turnarounds value="true"/>
        <junctions.corner-detail value="5"/>
        <junctions.limit-turn-speed value="5.50"/>
        <rectangular-lane-cut value="0"/>
    </junctions>

    <pedestrian>
        <walkingareas value="0"/>
    </pedestrian>

    <netedit>
        <new-network value="false"/>
    </netedit>

    <visualisation>
        <gui-settings-file value="D:\交通\sumo\viewsettings.xml"/>
    </visualisation>

</neteditConfiguration>
-->

<net version="1.20" junctionCornerDetail="5" limitTurnSpeed="5.50" xmlns:xsi="http://www.w3.org/2001/XMLSchema-instance" xsi:noNamespaceSchemaLocation="http://sumo.dlr.de/xsd/net_file.xsd">

    <location netOffset="0.00,0.00" convBoundary="-534.66,-176.07,537.67,177.19" origBoundary="-10000000000.00,-10000000000.00,10000000000.00,10000000000.00" projParameter="!"/>

    <edge id=":J0_w0" function="walkingarea">
        <lane id=":J0_w0_0" index="0" allow="pedestrian" speed="2.78" length="39.00" width="5.00" shape="-534.70,-17.30 -534.71,-22.30 -534.61,21.70 -534.62,16.70"/>
    </edge>
    <edge id=":J1_0" function="internal">
        <lane id=":J1_0_0" index="0" allow="bicycle" speed="8.68" length="12.14" width="5.00" shape="-335.66,13.64 -340.42,14.25 -343.82,15.98 -345.87,18.85"/>
    </edge>
    <edge id=":J1_1" function="internal">
        <lane id=":J1_1_0" index="0" allow="bicycle" speed="13.89" length="39.31" width="5.00" shape="-335.66,13.64 -374.96,13.83"/>
    </edge>
    <edge id=":J1_2" function="internal">
        <lane id=":J1_2_0" index="0" allow="passenger bus truck" speed="10.15" length="2.99" shape="-335.69,9.14 -338.65,9.55"/>
    </edge>
    <edge id=":J1_3" function="internal">
        <lane id=":J1_3_0" index="0" allow="passenger bus truck" speed="13.89" length="39.27" width="4.00" shape="-335.69,9.14 -374.97,9.33"/>
        <lane id=":J1_3_1" index="1" allow="passenger bus truck" speed="13.89" length="39.27" width="4.00" shape="-335.72,5.14 -374.98,5.33"/>
    </edge>
    <edge id=":J1_5" function="internal">
        <lane id=":J1_5_0" index="0" allow="passenger bus truck" speed="12.84" length="34.12" width="4.00" shape="-335.75,1.14 -345.24,-0.39 -352.02,-5.15 -356.08,-13.14 -356.95,-20.35"/>
    </edge>
    <edge id=":J1_24" function="internal">
        <lane id=":J1_24_0" index="0" allow="bicycle" speed="8.68" length="4.05" width="5.00" shape="-345.87,18.85 -346.55,22.84"/>
    </edge>
    <edge id=":J1_25" function="internal">
        <lane id=":J1_25_0" index="0" allow="passenger bus truck" speed="10.15" length="20.08" shape="-338.65,9.55 -342.23,10.04 -346.91,12.62 -349.71,16.89 -350.65,22.84"/>
    </edge>
    <edge id=":J1_26" function="internal">
        <lane id=":J1_26_0" index="0" allow="passenger bus truck" speed="12.84" length="4.03" width="4.00" shape="-356.95,-20.35 -357.43,-24.35"/>
    </edge>
    <edge id=":J1_6" function="internal">
        <lane id=":J1_6_0" index="0" allow="bicycle" speed="8.23" length="10.58" width="5.00" shape="-344.93,-24.35 -344.36,-20.39 -342.67,-17.57 -339.84,-15.89"/>
    </edge>
    <edge id=":J1_7" function="internal">
        <lane id=":J1_7_0" index="0" allow="bicycle" speed="13.89" length="47.22" width="5.00" shape="-344.93,-24.35 -346.55,22.84"/>
    </edge>
    <edge id=":J1_8" function="internal">
        <lane id=":J1_8_0" index="0" allow="passenger bus truck" speed="9.84" length="2.19" width="4.00" shape="-349.43,-24.35 -349.12,-22.18"/>
    </edge>
    <edge id=":J1_9" function="internal">
        <lane id=":J1_9_0" index="0" allow="passenger bus truck" speed="13.89" length="47.20" shape="-349.43,-24.35 -350.65,22.84"/>
        <lane id=":J1_9_1" index="1" allow="passenger bus truck" speed="13.89" length="47.20" shape="-353.43,-24.35 -353.85,22.84"/>
    </edge>
    <edge id=":J1_11" function="internal">
        <lane id=":J1_11_0" index="0" allow="passenger bus truck" speed="12.89" length="9.28" width="4.00" shape="-353.43,-24.35 -354.54,-15.14"/>
    </edge>
    <edge id=":J1_27" function="internal">
        <lane id=":J1_27_0" index="0" allow="bicycle" speed="8.23" length="4.00" width="5.00" shape="-339.84,-15.89 -335.87,-15.36"/>
    </edge>
    <edge id=":J1_28" function="internal">
        <lane id=":J1_28_0" index="0" allow="passenger bus truck" speed="9.84" length="19.69" width="4.00" shape="-349.12,-22.18 -348.58,-18.41 -346.04,-14.18 -341.79,-11.66 -335.84,-10.86"/>
    </edge>
    <edge id=":J1_29" function="internal">
        <lane id=":J1_29_0" index="0" allow="passenger bus truck" speed="12.89" length="28.86" width="4.00" shape="-354.54,-15.14 -354.78,-13.13 -358.83,-5.11 -365.56,-0.29 -374.99,1.33"/>
    </edge>
    <edge id=":J1_12" function="internal">
        <lane id=":J1_12_0" index="0" allow="bicycle" speed="8.30" length="10.69" width="5.00" shape="-375.03,-15.17 -371.05,-15.75 -368.21,-17.47 -366.50,-20.34"/>
    </edge>
    <edge id=":J1_13" function="internal">
        <lane id=":J1_13_0" index="0" allow="bicycle" speed="13.89" length="39.16" width="5.00" shape="-375.03,-15.17 -335.87,-15.36"/>
    </edge>
    <edge id=":J1_14" function="internal">
        <lane id=":J1_14_0" index="0" allow="passenger bus truck" speed="9.90" length="2.80" width="4.00" shape="-375.02,-10.67 -372.25,-11.07"/>
    </edge>
    <edge id=":J1_15" function="internal">
        <lane id=":J1_15_0" index="0" allow="passenger bus truck" speed="13.89" length="39.19" width="4.00" shape="-375.02,-10.67 -335.84,-10.86"/>
        <lane id=":J1_15_1" index="1" allow="passenger bus truck" speed="13.89" length="39.19" width="4.00" shape="-375.01,-6.67 -335.81,-6.86"/>
    </edge>
    <edge id=":J1_17" function="internal">
        <lane id=":J1_17_0" index="0" allow="passenger bus truck" speed="12.79" length="33.68" shape="-375.00,-2.67 -365.74,-1.09 -359.13,3.69 -355.17,11.66 -354.32,18.84"/>
    </edge>
    <edge id=":J1_30" function="internal">
        <lane id=":J1_30_0" index="0" allow="bicycle" speed="8.30" length="4.05" width="5.00" shape="-366.50,-20.34 -365.93,-24.36"/>
    </edge>
    <edge id=":J1_31" function="internal">
        <lane id=":J1_31_0" index="0" allow="passenger bus truck" speed="9.90" length="19.18" width="4.00" shape="-372.25,-11.07 -369.08,-11.53 -364.83,-14.10 -362.28,-18.38 -361.43,-24.36"/>
    </edge>
    <edge id=":J1_32" function="internal">
        <lane id=":J1_32_0" index="0" allow="passenger bus truck" speed="12.79" length="4.03" shape="-354.32,18.84 -353.85,22.84"/>
    </edge>
    <edge id=":J1_18" function="internal">
        <lane id=":J1_18_0" index="0" allow="bicycle" speed="8.24" length="10.55" width="5.00" shape="-365.95,22.83 -366.51,18.89 -368.20,16.07 -371.02,14.39"/>
    </edge>
    <edge id=":J1_19" function="internal">
        <lane id=":J1_19_0" index="0" allow="bicycle" speed="13.89" length="47.19" width="5.00" shape="-365.95,22.83 -365.93,-24.36"/>
    </edge>
    <edge id=":J1_20" function="internal">
        <lane id=":J1_20_0" index="0" allow="passenger bus truck" speed="9.85" length="2.76" width="4.00" shape="-361.45,22.83 -361.84,20.10"/>
    </edge>
    <edge id=":J1_21" function="internal">
        <lane id=":J1_21_0" index="0" allow="passenger bus truck" speed="13.89" length="47.19" width="4.00" shape="-361.45,22.83 -361.43,-24.36"/>
        <lane id=":J1_21_1" index="1" allow="passenger bus truck" speed="13.89" length="47.19" width="4.00" shape="-357.45,22.84 -357.43,-24.35"/>
    </edge>
    <edge id=":J1_23" function="internal">
        <lane id=":J1_23_0" index="0" allow="passenger bus truck" speed="12.92" length="9.90" width="4.00" shape="-357.45,22.84 -356.25,13.01"/>
    </edge>
    <edge id=":J1_33" function="internal">
        <lane id=":J1_33_0" index="0" allow="bicycle" speed="8.24" length="3.98" width="5.00" shape="-371.02,14.39 -374.96,13.83"/>
    </edge>
    <edge id=":J1_34" function="internal">
        <lane id=":J1_34_0" index="0" allow="passenger bus truck" speed="9.85" length="19.04" width="4.00" shape="-361.84,20.10 -362.29,16.92 -364.83,12.69 -369.05,10.17 -374.97,9.33"/>
    </edge>
    <edge id=":J1_35" function="internal">
        <lane id=":J1_35_0" index="0" allow="passenger bus truck" speed="12.92" length="28.29" width="4.00" shape="-356.25,13.01 -356.09,11.66 -352.03,3.65 -345.26,-1.19 -335.78,-2.86"/>
    </edge>
    <edge id=":J1_c0" function="crossing" crossingEdges="E3 -E3">
        <lane id=":J1_c0_0" index="0" allow="pedestrian" speed="2.78" length="34.00" width="4.00" shape="-337.89,-17.84 -337.64,16.16" outlineShape="-335.89,-17.86 -335.64,16.14 -338.21,16.35 -339.63,16.73 -339.90,-18.82 -339.53,-18.56 -337.89,-18.02"/>
    </edge>
    <edge id=":J1_c1" function="crossing" crossingEdges="E1 -E1">
        <lane id=":J1_c1_0" index="0" allow="pedestrian" speed="2.78" length="26.00" width="4.00" shape="-368.43,-22.36 -342.43,-22.35" outlineShape="-368.43,-24.36 -342.43,-24.35 -342.25,-22.35 -341.70,-20.72 -341.44,-20.35 -369.37,-20.36 -369.16,-20.65 -368.61,-22.32"/>
    </edge>
    <edge id=":J1_c2" function="crossing" crossingEdges="-E0 E0">
        <lane id=":J1_c2_0" index="0" allow="pedestrian" speed="2.78" length="34.00" width="4.00" shape="-372.96,16.33 -373.04,-17.67" outlineShape="-374.96,16.33 -375.04,-17.77 -373.02,-17.86 -371.37,-18.42 -371.04,-18.65 -370.96,17.32 -371.34,17.05 -372.97,16.51"/>
    </edge>
    <edge id=":J1_c3" function="crossing" crossingEdges="E2 -E2">
        <lane id=":J1_c3_0" index="0" allow="pedestrian" speed="2.78" length="24.40" width="4.00" shape="-344.05,20.84 -368.45,20.83" outlineShape="-344.05,22.84 -368.45,22.83 -368.55,22.83 -368.45,22.83 -368.63,20.84 -369.17,19.22 -369.44,18.83 -342.84,18.84 -343.11,19.15 -343.81,20.81"/>
    </edge>
    <edge id=":J1_w0" function="walkingarea">
        <lane id=":J1_w0_0" index="0" allow="pedestrian" speed="2.78" length="6.34" width="5.00" shape="-344.05,22.84 -339.05,22.84 -335.60,21.14 -335.64,16.14 -338.21,16.35 -340.31,16.91 -341.94,17.85 -343.11,19.15 -343.81,20.81"/>
    </edge>
    <edge id=":J1_w1" function="walkingarea">
        <lane id=":J1_w1_0" index="0" allow="pedestrian" speed="2.78" length="5.35" width="5.00" shape="-335.89,-17.86 -335.93,-22.86 -337.43,-24.35 -342.43,-24.35 -342.25,-22.35 -341.70,-20.72 -340.80,-19.45 -339.53,-18.56 -337.89,-18.02"/>
    </edge>
    <edge id=":J1_w2" function="walkingarea">
        <lane id=":J1_w2_0" index="0" allow="pedestrian" speed="2.78" length="5.47" width="5.00" shape="-368.43,-24.36 -373.43,-24.36 -375.05,-22.67 -375.04,-17.67 -373.02,-17.86 -371.37,-18.42 -370.08,-19.35 -369.16,-20.65 -368.61,-22.32"/>
    </edge>
    <edge id=":J1_w3" function="walkingarea">
        <lane id=":J1_w3_0" index="0" allow="pedestrian" speed="2.78" length="5.34" width="5.00" shape="-374.96,16.33 -374.95,21.33 -373.45,22.83 -368.45,22.83 -368.63,20.84 -369.17,19.22 -370.07,17.95 -371.34,17.05 -372.97,16.51"/>
    </edge>
    <edge id=":J10_w0" function="walkingarea">
        <lane id=":J10_w0_0" index="0" allow="pedestrian" speed="2.78" length="31.00" width="5.00" shape="372.18,-170.13 377.18,-170.13 341.18,-170.13 346.18,-170.13"/>
    </edge>
    <edge id=":J2_w0" function="walkingarea">
        <lane id=":J2_w0_0" index="0" allow="pedestrian" speed="2.78" length="31.00" width="5.00" shape="-342.36,-176.06 -337.36,-176.06 -373.36,-176.08 -368.36,-176.08"/>
    </edge>
    <edge id=":J3_w0" function="walkingarea">
        <lane id=":J3_w0_0" index="0" allow="pedestrian" speed="2.78" length="29.40" width="5.00" shape="-368.49,177.19 -373.49,177.18 -339.09,177.19 -344.09,177.19"/>
    </edge>
    <edge id=":J4_0" function="internal">
        <lane id=":J4_0_0" index="0" allow="bicycle" speed="8.26" length="10.59" width="5.00" shape="20.98,11.18 17.04,11.74 14.22,13.44 12.52,16.29"/>
    </edge>
    <edge id=":J4_1" function="internal">
        <lane id=":J4_1_0" index="0" allow="bicycle" speed="13.89" length="39.08" width="5.00" shape="20.98,11.18 -18.10,11.27"/>
    </edge>
    <edge id=":J4_2" function="internal">
        <lane id=":J4_2_0" index="0" allow="passenger bus truck" speed="9.87" length="2.85" width="4.00" shape="20.99,6.68 18.17,7.08"/>
    </edge>
    <edge id=":J4_3" function="internal">
        <lane id=":J4_3_0" index="0" allow="passenger bus truck" speed="13.89" length="39.15" width="4.00" shape="20.99,6.68 -18.13,6.77"/>
        <lane id=":J4_3_1" index="1" allow="passenger bus truck" speed="13.89" length="39.15" width="4.00" shape="21.01,2.68 -18.16,2.77"/>
    </edge>
    <edge id=":J4_5" function="internal">
        <lane id=":J4_5_0" index="0" allow="passenger bus truck" speed="12.86" length="33.94" width="4.00" shape="21.02,-1.32 11.60,-2.94 4.87,-7.73 0.84,-15.70 -0.02,-22.84"/>
    </edge>
    <edge id=":J4_22" function="internal">
        <lane id=":J4_22_0" index="0" allow="bicycle" speed="8.26" length="4.03" width="5.00" shape="12.52,16.29 11.96,20.28"/>
    </edge>
    <edge id=":J4_23" function="internal">
        <lane id=":J4_23_0" index="0" allow="passenger bus truck" speed="9.87" length="19.05" width="4.00" shape="18.17,7.08 15.08,7.51 10.85,10.06 8.31,14.31 7.46,20.28"/>
    </edge>
    <edge id=":J4_24" function="internal">
        <lane id=":J4_24_0" index="0" allow="passenger bus truck" speed="12.86" length="4.03" width="4.00" shape="-0.02,-22.84 -0.50,-26.84"/>
    </edge>
    <edge id=":J4_6" function="internal">
        <lane id=":J4_6_0" index="0" allow="bicycle" speed="8.26" length="10.56" width="5.00" shape="12.00,-26.83 12.56,-22.90 14.26,-20.09 17.10,-18.39"/>
    </edge>
    <edge id=":J4_7" function="internal">
        <lane id=":J4_7_0" index="0" allow="bicycle" speed="13.89" length="47.12" width="5.00" shape="12.00,-26.83 11.96,20.28"/>
    </edge>
    <edge id=":J4_8" function="internal">
        <lane id=":J4_8_0" index="0" allow="passenger bus truck" speed="9.87" length="2.74" width="4.00" shape="7.50,-26.84 7.89,-24.12"/>
    </edge>
    <edge id=":J4_9" function="internal">
        <lane id=":J4_9_0" index="0" allow="passenger bus truck" speed="13.89" length="47.12" width="4.00" shape="7.50,-26.84 7.46,20.28"/>
    </edge>
    <edge id=":J4_10" function="internal">
        <lane id=":J4_10_0" index="0" allow="passenger bus truck" speed="12.91" length="34.07" width="4.00" shape="3.50,-26.84 2.14,-15.70 -1.93,-7.72 -8.71,-2.89 -14.20,-1.93"/>
    </edge>
    <edge id=":J4_25" function="internal">
        <lane id=":J4_25_0" index="0" allow="bicycle" speed="8.26" length="4.01" width="5.00" shape="17.10,-18.39 21.07,-17.82"/>
    </edge>
    <edge id=":J4_26" function="internal">
        <lane id=":J4_26_0" index="0" allow="passenger bus truck" speed="9.87" length="19.07" width="4.00" shape="7.89,-24.12 8.34,-20.94 10.88,-16.72 15.12,-14.18 21.05,-13.32"/>
    </edge>
    <edge id=":J4_27" function="internal">
        <lane id=":J4_27_0" index="0" allow="passenger bus truck" speed="12.91" length="4.06" width="4.00" shape="-14.20,-1.93 -18.19,-1.23"/>
    </edge>
    <edge id=":J4_11" function="internal">
        <lane id=":J4_11_0" index="0" allow="bicycle" speed="8.34" length="10.83" width="5.00" shape="-18.32,-17.73 -14.24,-18.33 -11.33,-20.05 -9.59,-22.89"/>
    </edge>
    <edge id=":J4_12" function="internal">
        <lane id=":J4_12_0" index="0" allow="bicycle" speed="13.89" length="39.38" width="5.00" shape="-18.32,-17.73 21.07,-17.82"/>
    </edge>
    <edge id=":J4_13" function="internal">
        <lane id=":J4_13_0" index="0" allow="passenger bus truck" speed="9.94" length="2.72" width="4.00" shape="-18.28,-13.23 -15.60,-13.63"/>
    </edge>
    <edge id=":J4_14" function="internal">
        <lane id=":J4_14_0" index="0" allow="passenger bus truck" speed="13.89" length="39.32" width="4.00" shape="-18.28,-13.23 21.05,-13.32"/>
        <lane id=":J4_14_1" index="1" allow="passenger bus truck" speed="13.89" length="39.32" width="4.00" shape="-18.25,-9.23 21.04,-9.32"/>
    </edge>
    <edge id=":J4_16" function="internal">
        <lane id=":J4_16_0" index="0" allow="passenger bus truck" speed="12.84" length="34.14" width="4.00" shape="-18.22,-5.23 -8.73,-3.70 -1.95,1.06 2.11,9.06 2.98,16.28"/>
    </edge>
    <edge id=":J4_28" function="internal">
        <lane id=":J4_28_0" index="0" allow="bicycle" speed="8.34" length="4.01" width="5.00" shape="-9.59,-22.89 -9.00,-26.85"/>
    </edge>
    <edge id=":J4_29" function="internal">
        <lane id=":J4_29_0" index="0" allow="passenger bus truck" speed="9.94" length="19.33" width="4.00" shape="-15.60,-13.63 -12.26,-14.12 -7.95,-16.69 -5.37,-20.93 -4.50,-26.85"/>
    </edge>
    <edge id=":J4_30" function="internal">
        <lane id=":J4_30_0" index="0" allow="passenger bus truck" speed="12.84" length="4.03" width="4.00" shape="2.98,16.28 3.46,20.28"/>
    </edge>
    <edge id=":J4_17" function="internal">
        <lane id=":J4_17_0" index="0" allow="bicycle" speed="8.23" length="10.58" width="5.00" shape="-9.04,20.26 -9.61,16.30 -11.30,13.48 -14.13,11.80"/>
    </edge>
    <edge id=":J4_18" function="internal">
        <lane id=":J4_18_0" index="0" allow="bicycle" speed="13.89" length="47.11" width="5.00" shape="-9.04,20.26 -9.00,-26.85"/>
    </edge>
    <edge id=":J4_19" function="internal">
        <lane id=":J4_19_0" index="0" allow="passenger bus truck" speed="9.84" length="2.76" width="4.00" shape="-4.54,20.27 -4.93,17.53"/>
    </edge>
    <edge id=":J4_20" function="internal">
        <lane id=":J4_20_0" index="0" allow="passenger bus truck" speed="13.89" length="47.11" width="4.00" shape="-4.54,20.27 -4.50,-26.85"/>
    </edge>
    <edge id=":J4_21" function="internal">
        <lane id=":J4_21_0" index="0" allow="passenger bus truck" speed="12.86" length="34.04" width="4.00" shape="-0.54,20.27 0.81,9.05 4.86,1.04 11.60,-3.75 17.03,-4.65"/>
    </edge>
    <edge id=":J4_31" function="internal">
        <lane id=":J4_31_0" index="0" allow="bicycle" speed="8.23" length="4.00" width="5.00" shape="-14.13,11.80 -18.10,11.27"/>
    </edge>
    <edge id=":J4_32" function="internal">
        <lane id=":J4_32_0" index="0" allow="passenger bus truck" speed="9.84" length="19.12" width="4.00" shape="-4.93,17.53 -5.39,14.32 -7.93,10.09 -12.18,7.57 -18.13,6.77"/>
    </edge>
    <edge id=":J4_33" function="internal">
        <lane id=":J4_33_0" index="0" allow="passenger bus truck" speed="12.86" length="4.06" width="4.00" shape="17.03,-4.65 21.03,-5.32"/>
    </edge>
    <edge id=":J4_c0" function="crossing" crossingEdges="E7 -E7">
        <lane id=":J4_c0_0" index="0" allow="pedestrian" speed="2.78" length="34.00" width="4.00" shape="19.07,-20.33 18.97,13.67" outlineShape="21.07,-20.32 20.97,13.68 18.98,13.86 17.35,14.40 16.97,14.68 17.08,-21.29 17.42,-21.05 19.06,-20.51"/>
    </edge>
    <edge id=":J4_c1" function="crossing" crossingEdges="E6 -E6">
        <lane id=":J4_c1_0" index="0" allow="pedestrian" speed="2.78" length="26.00" width="4.00" shape="-11.50,-24.85 14.50,-24.83" outlineShape="-11.50,-26.85 14.50,-26.83 14.68,-24.85 15.23,-23.22 15.51,-22.83 -12.52,-22.85 -12.26,-23.20 -11.69,-24.84"/>
    </edge>
    <edge id=":J4_c2" function="crossing" crossingEdges="-E3 E3">
        <lane id=":J4_c2_0" index="0" allow="pedestrian" speed="2.78" length="34.00" width="4.00" shape="-16.08,13.75 -16.33,-20.25" outlineShape="-18.08,13.87 -18.34,-20.33 -18.33,-20.23 -16.25,-20.43 -14.54,-20.99 -14.34,-21.13 -14.07,14.73 -14.45,14.47 -16.08,13.93"/>
    </edge>
    <edge id=":J4_c3" function="crossing" crossingEdges="-E5 E5">
        <lane id=":J4_c3_0" index="0" allow="pedestrian" speed="2.78" length="26.00" width="4.00" shape="14.46,18.29 -11.54,18.26" outlineShape="14.46,20.29 -11.64,20.26 -11.54,20.26 -11.72,18.26 -12.27,16.63 -12.53,16.26 15.41,16.29 15.18,16.61 14.64,18.26"/>
    </edge>
    <edge id=":J4_w0" function="walkingarea">
        <lane id=":J4_w0_0" index="0" allow="pedestrian" speed="2.78" length="5.39" width="5.00" shape="14.46,20.29 19.46,20.29 20.96,18.68 20.97,13.68 18.98,13.86 17.35,14.40 16.09,15.32 15.18,16.61 14.64,18.26"/>
    </edge>
    <edge id=":J4_w1" function="walkingarea">
        <lane id=":J4_w1_0" index="0" allow="pedestrian" speed="2.78" length="5.38" width="5.00" shape="21.07,-20.32 21.09,-25.32 19.50,-26.83 14.50,-26.83 14.68,-24.85 15.23,-23.22 16.14,-21.96 17.42,-21.05 19.06,-20.51"/>
    </edge>
    <edge id=":J4_w2" function="walkingarea">
        <lane id=":J4_w2_0" index="0" allow="pedestrian" speed="2.78" length="5.54" width="5.00" shape="-11.50,-26.85 -16.50,-26.86 -18.37,-25.23 -18.33,-20.23 -16.25,-20.43 -14.54,-20.99 -13.21,-21.91 -12.26,-23.20 -11.69,-24.84"/>
    </edge>
    <edge id=":J4_w3" function="walkingarea">
        <lane id=":J4_w3_0" index="0" allow="pedestrian" speed="2.78" length="5.35" width="5.00" shape="-18.08,13.77 -18.04,18.77 -16.54,20.26 -11.54,20.26 -11.72,18.26 -12.27,16.63 -13.18,15.37 -14.45,14.47 -16.08,13.93"/>
    </edge>
    <edge id=":J5_w0" function="walkingarea">
        <lane id=":J5_w0_0" index="0" allow="pedestrian" speed="2.78" length="31.00" width="5.00" shape="346.15,176.30 341.15,176.30 377.15,176.30 372.15,176.30"/>
    </edge>
    <edge id=":J6_w0" function="walkingarea">
        <lane id=":J6_w0_0" index="0" allow="pedestrian" speed="2.78" length="39.20" width="5.00" shape="537.67,14.92 537.67,19.92 537.67,-24.28 537.67,-19.28"/>
    </edge>
    <edge id=":J7_w0" function="walkingarea">
        <lane id=":J7_w0_0" index="0" allow="pedestrian" speed="2.78" length="31.00" width="5.00" shape="-11.70,170.66 -16.70,170.65 19.30,170.69 14.30,170.68"/>
    </edge>
    <edge id=":J8_0" function="internal">
        <lane id=":J8_0_0" index="0" allow="bicycle" speed="8.24" length="10.54" width="5.00" shape="378.67,12.40 374.73,12.96 371.92,14.65 370.23,17.46"/>
    </edge>
    <edge id=":J8_1" function="internal">
        <lane id=":J8_1_0" index="0" allow="bicycle" speed="13.89" length="39.11" width="5.00" shape="378.67,12.40 339.56,12.14"/>
    </edge>
    <edge id=":J8_2" function="internal">
        <lane id=":J8_2_0" index="0" allow="passenger bus truck" speed="10.00" length="5.81" width="4.00" shape="378.67,7.40 372.92,8.25"/>
    </edge>
    <edge id=":J8_3" function="internal">
        <lane id=":J8_3_0" index="0" allow="passenger bus truck" speed="13.89" length="39.09" width="4.00" shape="378.67,7.40 339.57,7.64"/>
        <lane id=":J8_3_1" index="1" allow="passenger bus truck" speed="13.89" length="39.09" width="4.00" shape="378.67,2.90 339.59,3.64"/>
    </edge>
    <edge id=":J8_5" function="internal">
        <lane id=":J8_5_0" index="0" allow="passenger bus truck" speed="12.75" length="33.64" width="4.00" shape="378.67,-0.70 369.26,-2.27 362.55,-6.99 358.51,-14.85 357.66,-21.85"/>
    </edge>
    <edge id=":J8_24" function="internal">
        <lane id=":J8_24_0" index="0" allow="bicycle" speed="8.24" length="3.98" width="5.00" shape="370.23,17.46 369.67,21.40"/>
    </edge>
    <edge id=":J8_25" function="internal">
        <lane id=":J8_25_0" index="0" allow="passenger bus truck" speed="10.00" length="16.37" width="4.00" shape="372.92,8.25 372.76,8.28 368.54,10.90 366.01,15.28 365.17,21.40"/>
    </edge>
    <edge id=":J8_26" function="internal">
        <lane id=":J8_26_0" index="0" allow="passenger bus truck" speed="12.75" length="4.03" width="4.00" shape="357.66,-21.85 357.17,-25.85"/>
    </edge>
    <edge id=":J8_6" function="internal">
        <lane id=":J8_6_0" index="0" allow="bicycle" speed="8.25" length="10.58" width="5.00" shape="369.67,-25.85 370.23,-21.89 371.92,-19.06 374.73,-17.36"/>
    </edge>
    <edge id=":J8_7" function="internal">
        <lane id=":J8_7_0" index="0" allow="bicycle" speed="13.89" length="47.25" width="5.00" shape="369.67,-25.85 369.67,21.40"/>
    </edge>
    <edge id=":J8_8" function="internal">
        <lane id=":J8_8_0" index="0" allow="passenger bus truck" speed="9.86" length="2.78" width="4.00" shape="365.17,-25.85 365.56,-23.11"/>
    </edge>
    <edge id=":J8_9" function="internal">
        <lane id=":J8_9_0" index="0" allow="passenger bus truck" speed="13.89" length="47.25" width="4.00" shape="365.17,-25.85 365.17,21.40"/>
        <lane id=":J8_9_1" index="1" allow="passenger bus truck" speed="13.89" length="47.25" width="4.00" shape="361.17,-25.85 361.17,21.40"/>
    </edge>
    <edge id=":J8_11" function="internal">
        <lane id=":J8_11_0" index="0" allow="passenger bus truck" speed="12.84" length="33.97" width="4.00" shape="361.17,-25.85 359.82,-14.68 355.78,-6.70 349.04,-1.93 343.60,-1.02"/>
    </edge>
    <edge id=":J8_27" function="internal">
        <lane id=":J8_27_0" index="0" allow="bicycle" speed="8.25" length="3.98" width="5.00" shape="374.73,-17.36 378.67,-16.80"/>
    </edge>
    <edge id=":J8_28" function="internal">
        <lane id=":J8_28_0" index="0" allow="passenger bus truck" speed="9.86" length="19.04" width="4.00" shape="365.56,-23.11 366.01,-19.92 368.55,-15.69 372.76,-13.15 378.67,-12.30"/>
    </edge>
    <edge id=":J8_29" function="internal">
        <lane id=":J8_29_0" index="0" allow="passenger bus truck" speed="12.84" length="4.06" width="4.00" shape="343.60,-1.02 339.60,-0.36"/>
    </edge>
    <edge id=":J8_12" function="internal">
        <lane id=":J8_12_0" index="0" allow="bicycle" speed="8.24" length="10.55" width="5.00" shape="339.65,-16.86 343.60,-17.41 346.42,-19.09 348.11,-21.91"/>
    </edge>
    <edge id=":J8_13" function="internal">
        <lane id=":J8_13_0" index="0" allow="bicycle" speed="13.89" length="39.02" width="5.00" shape="339.65,-16.86 378.67,-16.80"/>
    </edge>
    <edge id=":J8_14" function="internal">
        <lane id=":J8_14_0" index="0" allow="passenger bus truck" speed="9.85" length="2.79" width="4.00" shape="339.64,-12.36 342.40,-12.75"/>
    </edge>
    <edge id=":J8_15" function="internal">
        <lane id=":J8_15_0" index="0" allow="passenger bus truck" speed="13.89" length="39.04" width="4.00" shape="339.64,-12.36 378.67,-12.30"/>
        <lane id=":J8_15_1" index="1" allow="passenger bus truck" speed="13.89" length="39.04" width="4.00" shape="339.62,-8.36 378.67,-8.30"/>
    </edge>
    <edge id=":J8_17" function="internal">
        <lane id=":J8_17_0" index="0" allow="passenger bus truck" speed="12.90" length="34.16" width="4.00" shape="339.61,-4.36 349.04,-2.72 355.78,2.11 359.82,10.15 360.69,17.40"/>
    </edge>
    <edge id=":J8_30" function="internal">
        <lane id=":J8_30_0" index="0" allow="bicycle" speed="8.24" length="3.99" width="5.00" shape="348.11,-21.91 348.67,-25.85"/>
    </edge>
    <edge id=":J8_31" function="internal">
        <lane id=":J8_31_0" index="0" allow="passenger bus truck" speed="9.85" length="19.02" width="4.00" shape="342.40,-12.75 345.56,-13.19 349.79,-15.71 352.33,-19.93 353.17,-25.85"/>
    </edge>
    <edge id=":J8_32" function="internal">
        <lane id=":J8_32_0" index="0" allow="passenger bus truck" speed="12.90" length="4.03" width="4.00" shape="360.69,17.40 361.17,21.40"/>
    </edge>
    <edge id=":J8_18" function="internal">
        <lane id=":J8_18_0" index="0" allow="bicycle" speed="8.32" length="10.77" width="5.00" shape="348.67,21.40 348.10,17.36 346.39,14.47 343.55,12.73"/>
    </edge>
    <edge id=":J8_19" function="internal">
        <lane id=":J8_19_0" index="0" allow="bicycle" speed="13.89" length="47.25" width="5.00" shape="348.67,21.40 348.67,-25.85"/>
    </edge>
    <edge id=":J8_20" function="internal">
        <lane id=":J8_20_0" index="0" allow="passenger bus truck" speed="9.92" length="2.79" width="4.00" shape="353.17,21.40 352.78,18.63"/>
    </edge>
    <edge id=":J8_21" function="internal">
        <lane id=":J8_21_0" index="0" allow="passenger bus truck" speed="13.89" length="47.25" width="4.00" shape="353.17,21.40 353.17,-25.85"/>
        <lane id=":J8_21_1" index="1" allow="passenger bus truck" speed="13.89" length="47.25" width="4.00" shape="357.17,21.40 357.17,-25.85"/>
    </edge>
    <edge id=":J8_23" function="internal">
        <lane id=":J8_23_0" index="0" allow="passenger bus truck" speed="12.87" length="34.06" width="4.00" shape="357.17,21.40 358.51,10.16 362.54,2.13 369.26,-2.69 374.67,-3.62"/>
    </edge>
    <edge id=":J8_33" function="internal">
        <lane id=":J8_33_0" index="0" allow="bicycle" speed="8.32" length="4.03" width="5.00" shape="343.55,12.73 339.56,12.14"/>
    </edge>
    <edge id=":J8_34" function="internal">
        <lane id=":J8_34_0" index="0" allow="passenger bus truck" speed="9.92" length="19.25" width="4.00" shape="352.78,18.63 352.32,15.40 349.77,11.10 345.52,8.52 339.57,7.64"/>
    </edge>
    <edge id=":J8_35" function="internal">
        <lane id=":J8_35_0" index="0" allow="passenger bus truck" speed="12.87" length="4.06" width="4.00" shape="374.67,-3.62 378.67,-4.30"/>
    </edge>
    <edge id=":J8_c0" function="crossing" crossingEdges="E10 -E10">
        <lane id=":J8_c0_0" index="0" allow="pedestrian" speed="2.78" length="34.20" width="4.00" shape="376.67,-19.30 376.67,14.90" outlineShape="378.67,-19.30 378.67,14.90 376.68,15.08 375.06,15.62 374.67,15.90 374.67,-20.31 375.06,-20.03 376.69,-19.48"/>
    </edge>
    <edge id=":J8_c1" function="crossing" crossingEdges="E9 -E9">