<additional>
    <edgeData id="eJ3J2" file="eJ3J2.xml" freq="300" trackVehicles="true" withInternal="false"/>
</additional>