<additional>
    <laneData id="eJ3J2_0" file="eJ3J2_1.xml" freq="300" excludeEmpty="true"/>
</additional>