<additional>
  <instantInductionLoop  id="north_0" lane="E1_2" pos="120" freq="300" file="output/data_e1_instant.xml" friendlypos="true"/>
  <instantInductionLoop  id="north_1" lane="E1_3" pos="120" freq="300" file="output/data_e1_instant.xml" friendlypos="true"/>
  <instantInductionLoop  id="north_2" lane="E1_4" pos="120" freq="300" file="output/data_e1_instant.xml" friendlypos="true"/>

  <instantInductionLoop  id="west_0" lane="E0_2" pos="120" freq="300" file="output/data_e1_instant.xml" friendlypos="true"/>
  <instantInductionLoop  id="west_1" lane="E0_3" pos="120" freq="300" file="output/data_e1_instant.xml" friendlypos="true"/>
  <instantInductionLoop  id="west_2" lane="E0_4" pos="120" freq="300" file="output/data_e1_instant.xml" friendlypos="true"/>
  

  <instantInductionLoop  id="south_0" lane="E2_2" pos="80" freq="300" file="output/data_e1_instant.xml" friendlypos="true"/>
  <instantInductionLoop  id="south_1" lane="E2_3" pos="80" freq="300" file="output/data_e1_instant.xml" friendlypos="true"/>
  <instantInductionLoop  id="south_2" lane="E2_4" pos="80" freq="300" file="output/data_e1_instant.xml" friendlypos="true"/>

  <instantInductionLoop  id="east_0" lane="E3_2" pos="120" freq="300" file="output/data_e1_instant.xml" friendlypos="true"/>
  <instantInductionLoop  id="east_1" lane="E3_3" pos="120" freq="300" file="output/data_e1_instant.xml" friendlypos="true"/>
  <instantInductionLoop  id="east_2" lane="E3_4" pos="120" freq="300" file="output/data_e1_instant.xml" friendlypos="true"/>
  
</additional>