<?xml version="1.0" encoding="UTF-8"?>

<!-- generated on 09/18/19 11:37:56 by Eclipse SUMO netedit Version 1.2.0
<configuration xmlns:xsi="http://www.w3.org/2001/XMLSchema-instance" xsi:noNamespaceSchemaLocation="http://sumo.dlr.de/xsd/netconvertConfiguration.xsd">

    <input>
        <sumo-net-file value="C:\Users\pc\Documents\My_SUMO\test\simpleTest.net.xml"/>
    </input>

    <output>
        <output-file value="C:\Users\pc\Documents\My_SUMO\test\simpleTest.net.xml"/>
    </output>

    <processing>
        <geometry.max-grade.fix value="false"/>
        <offset.disable-normalization value="true"/>
        <lefthand value="false"/>
    </processing>

    <junctions>
        <no-internal-links value="true"/>
        <no-turnarounds value="true"/>
        <junctions.corner-detail value="5"/>
        <junctions.limit-turn-speed value="5.5"/>
        <rectangular-lane-cut value="false"/>
    </junctions>

    <pedestrian>
        <walkingareas value="false"/>
    </pedestrian>

    <visualisation>
        <registry-viewport value="true"/>
    </visualisation>

</configuration>
-->

<net version="1.1" junctionCornerDetail="5" limitTurnSpeed="5.50" xmlns:xsi="http://www.w3.org/2001/XMLSchema-instance" xsi:noNamespaceSchemaLocation="http://sumo.dlr.de/xsd/net_file.xsd">

    <location netOffset="0.00,0.00" convBoundary="-227.09,-343.91,427.18,217.53" origBoundary="-10000000000.00,-10000000000.00,10000000000.00,10000000000.00" projParameter="!"/>

    <edge id="E0" from="J0" to="J2" priority="-1">
        <lane id="E0_0" index="0" speed="13.89" length="459.14" shape="-227.16,50.32 225.04,43.52"/>
        <lane id="E0_1" index="1" speed="13.89" length="459.14" shape="-227.11,53.52 225.09,46.72"/>
    </edge>
    <edge id="E1" from="J2" to="J0" priority="-1">
        <lane id="E1_0" index="0" speed="13.89" length="459.14" shape="225.23,56.32 -226.97,63.12"/>
        <lane id="E1_1" index="1" speed="13.89" length="459.14" shape="225.18,53.12 -227.02,59.92"/>
        <lane id="E1_2" index="2" speed="13.89" length="459.14" shape="225.14,49.92 -227.07,56.72"/>
    </edge>
    <edge id="E2" from="J2" to="J3" priority="-1">
        <lane id="E2_0" index="0" speed="13.89" length="392.36" shape="230.76,37.62 243.84,-343.96"/>
    </edge>
    <edge id="E3" from="J3" to="J2" priority="-1">
        <lane id="E3_0" index="0" speed="13.89" length="392.36" shape="247.04,-343.86 233.96,37.73"/>
    </edge>
    <edge id="gneE0" from="J2" to="gneJ1" priority="-1">
        <lane id="gneE0_0" index="0" speed="13.89" length="195.19" shape="239.76,43.34 427.13,41.48"/>
        <lane id="gneE0_1" index="1" speed="13.89" length="195.19" shape="239.80,46.54 427.16,44.68"/>
    </edge>
    <edge id="gneE1" from="gneJ1" to="J2" priority="-1">
        <lane id="gneE1_0" index="0" speed="13.89" length="195.19" shape="427.26,54.28 239.89,56.14"/>
        <lane id="gneE1_1" index="1" speed="13.89" length="195.19" shape="427.23,51.08 239.86,52.94"/>
        <lane id="gneE1_2" index="2" speed="13.89" length="195.19" shape="427.20,47.88 239.83,49.74"/>
    </edge>
    <edge id="gneE2" from="J2" to="gneJ2" priority="-1">
        <lane id="gneE2_0" index="0" speed="13.89" length="169.76" shape="234.60,61.89 245.96,217.41"/>
    </edge>
    <edge id="gneE3" from="gneJ2" to="J2" priority="-1">
        <lane id="gneE3_0" index="0" speed="13.89" length="169.76" shape="242.76,217.65 231.41,62.12"/>
    </edge>

    <tlLogic id="J2" type="static" programID="0" offset="0">
        <phase duration="42" state="rrrrGGGGggrrrrGGGgg"/>
        <phase duration="3"  state="rrrryyyyyyrrrryyyyy"/>
        <phase duration="42" state="GGggrrrrrrGGggrrrrr"/>
        <phase duration="3"  state="yyyyrrrrrryyyyrrrrr"/>
    </tlLogic>

    <junction id="J0" type="dead_end" x="-227.09" y="55.12" incLanes="E1_0 E1_1 E1_2" intLanes="" shape="-227.09,55.12 -226.95,64.72 -227.09,55.12"/>
    <junction id="J2" type="traffic_light" x="232.00" y="48.22" incLanes="gneE3_0 gneE1_0 gneE1_1 gneE1_2 E3_0 E0_0 E0_1" intLanes="" shape="229.81,62.24 236.20,61.77 236.48,59.55 236.98,58.77 237.72,58.21 238.69,57.86 239.91,57.74 239.75,41.74 237.36,41.32 236.54,40.78 235.96,40.00 235.64,39.01 235.56,37.79 229.16,37.57 228.64,39.96 228.05,40.81 227.25,41.41 226.24,41.79 225.02,41.92 225.26,57.92 227.65,58.37 228.52,58.97 229.17,59.81 229.60,60.90">
        <request index="0"  response="0000000000011100000" foes="0000000000011100000"/>
        <request index="1"  response="0111100000111100000" foes="0111111000111100000"/>
        <request index="2"  response="0111000100111100000" foes="0111000101111100000"/>
        <request index="3"  response="0100000100000010000" foes="0100000100000010000"/>
        <request index="4"  response="0000000000000000000" foes="0100000100000001000"/>
        <request index="5"  response="0000000000000000000" foes="1100001100000000111"/>
        <request index="6"  response="0000000000000000000" foes="1100001100000000111"/>
        <request index="7"  response="0000000000000000000" foes="1100001100000000111"/>
        <request index="8"  response="0011100000000000000" foes="0011111100000000110"/>
        <request index="9"  response="0011000000000000100" foes="0011000000000000100"/>
        <request index="10" response="0011000000000000000" foes="0011000000000000000"/>
        <request index="11" response="0111000000111110000" foes="0111000000111111100"/>
        <request index="12" response="0111000000111100010" foes="1111000000111100010"/>
        <request index="13" response="0000100000100000010" foes="0000100000100000010"/>
        <request index="14" response="0000000000000000000" foes="0000010000100000010"/>
        <request index="15" response="0000000000000000000" foes="0000001111100000110"/>
        <request index="16" response="0000000000000000000" foes="0000001111100000110"/>
        <request index="17" response="0000000000011110000" foes="0000001100011111110"/>
        <request index="18" response="0000001000011100000" foes="0000001000011100000"/>
    </junction>
    <junction id="J3" type="dead_end" x="245.44" y="-343.91" incLanes="E2_0" intLanes="" shape="245.44,-343.91 242.24,-344.02 245.44,-343.91"/>
    <junction id="gneJ1" type="dead_end" x="427.18" y="46.28" incLanes="gneE0_0 gneE0_1" intLanes="" shape="427.18,46.28 427.12,39.88 427.18,46.28"/>
    <junction id="gneJ2" type="dead_end" x="244.36" y="217.53" incLanes="gneE2_0" intLanes="" shape="244.36,217.53 247.55,217.30 244.36,217.53"/>

    <connection from="E0" to="E2" fromLane="0" toLane="0" tl="J2" linkIndex="14" dir="r" state="O"/>
    <connection from="E0" to="gneE0" fromLane="0" toLane="0" tl="J2" linkIndex="15" dir="s" state="O"/>
    <connection from="E0" to="gneE0" fromLane="1" toLane="1" tl="J2" linkIndex="16" dir="s" state="O"/>
    <connection from="E0" to="gneE2" fromLane="1" toLane="0" tl="J2" linkIndex="17" dir="l" state="o"/>
    <connection from="E0" to="E1" fromLane="1" toLane="2" tl="J2" linkIndex="18" dir="t" state="o"/>
    <connection from="E3" to="gneE0" fromLane="0" toLane="0" tl="J2" linkIndex="10" dir="r" state="o"/>
    <connection from="E3" to="gneE2" fromLane="0" toLane="0" tl="J2" linkIndex="11" dir="s" state="o"/>
    <connection from="E3" to="E1" fromLane="0" toLane="2" tl="J2" linkIndex="12" dir="l" state="o"/>
    <connection from="E3" to="E2" fromLane="0" toLane="0" tl="J2" linkIndex="13" dir="t" state="o"/>
    <connection from="gneE1" to="gneE2" fromLane="0" toLane="0" tl="J2" linkIndex="4" dir="r" state="O"/>
    <connection from="gneE1" to="E1" fromLane="0" toLane="0" tl="J2" linkIndex="5" dir="s" state="O"/>
    <connection from="gneE1" to="E1" fromLane="1" toLane="1" tl="J2" linkIndex="6" dir="s" state="O"/>
    <connection from="gneE1" to="E1" fromLane="2" toLane="2" tl="J2" linkIndex="7" dir="s" state="O"/>
    <connection from="gneE1" to="E2" fromLane="2" toLane="0" tl="J2" linkIndex="8" dir="l" state="o"/>
    <connection from="gneE1" to="gneE0" fromLane="2" toLane="1" tl="J2" linkIndex="9" dir="t" state="o"/>
    <connection from="gneE3" to="E1" fromLane="0" toLane="0" tl="J2" linkIndex="0" dir="r" state="o"/>
    <connection from="gneE3" to="E2" fromLane="0" toLane="0" tl="J2" linkIndex="1" dir="s" state="o"/>
    <connection from="gneE3" to="gneE0" fromLane="0" toLane="1" tl="J2" linkIndex="2" dir="l" state="o"/>
    <connection from="gneE3" to="gneE2" fromLane="0" toLane="0" tl="J2" linkIndex="3" dir="t" state="o"/>

</net>
