<?xml version="1.0" encoding="UTF-8"?>

<!-- generated on 2023-08-19 15:53:01 by Eclipse SUMO od2trips Version 1.18.0
<configuration xmlns:xsi="http://www.w3.org/2001/XMLSchema-instance" xsi:noNamespaceSchemaLocation="http://sumo.dlr.de/xsd/od2tripsConfiguration.xsd">

    <input>
        <taz-files value="example43_taz_def.add.xml"/>
        <tazrelation-files value="example43_taz_OD_matrix.xml"/>
    </input>

    <output>
        <write-license value="false"/>
        <precision value="2"/>
        <output-file value="example43_taz_3.rou.xml"/>
        <flow-output value="example43_taz_3.flows.xml"/>
        <flow-output.probability value="true"/>
    </output>

    <time>
        <begin value="0"/>
        <end value="3600"/>
    </time>

    <processing>
        <vtype value="typedist1"/>
    </processing>

</configuration>
-->

<routes xmlns:xsi="http://www.w3.org/2001/XMLSchema-instance" xsi:noNamespaceSchemaLocation="http://sumo.dlr.de/xsd/routes_file.xsd">
    <flow id="0" begin="0.00" end="3600.00" probability="0.111111" type="typedist1" fromTaz="taz_01" toTaz="taz_02" departLane="free" departSpeed="max"/>
    <flow id="1" begin="0.00" end="3600.00" probability="0.083333" type="typedist1" fromTaz="taz_01" toTaz="taz_03" departLane="free" departSpeed="max"/>
    <flow id="2" begin="0.00" end="3600.00" probability="0.083333" type="typedist1" fromTaz="taz_01" toTaz="taz_04" departLane="free" departSpeed="max"/>
    <flow id="3" begin="0.00" end="3600.00" probability="0.083333" type="typedist1" fromTaz="taz_01" toTaz="taz_05" departLane="free" departSpeed="max"/>
    <flow id="4" begin="0.00" end="3600.00" probability="0.083333" type="typedist1" fromTaz="taz_01" toTaz="taz_06" departLane="free" departSpeed="max"/>
    <flow id="5" begin="0.00" end="3600.00" probability="0.166667" type="typedist1" fromTaz="taz_02" toTaz="taz_01" departLane="free" departSpeed="max"/>
    <flow id="6" begin="0.00" end="3600.00" probability="0.166667" type="typedist1" fromTaz="taz_02" toTaz="taz_03" departLane="free" departSpeed="max"/>
    <flow id="7" begin="0.00" end="3600.00" probability="0.111111" type="typedist1" fromTaz="taz_03" toTaz="taz_01" departLane="free" departSpeed="max"/>
    <flow id="8" begin="0.00" end="3600.00" probability="0.083333" type="typedist1" fromTaz="taz_03" toTaz="taz_02" departLane="free" departSpeed="max"/>
    <flow id="9" begin="0.00" end="3600.00" probability="0.083333" type="typedist1" fromTaz="taz_03" toTaz="taz_05" departLane="free" departSpeed="max"/>
    <flow id="10" begin="0.00" end="3600.00" probability="0.055556" type="typedist1" fromTaz="taz_03" toTaz="taz_06" departLane="free" departSpeed="max"/>
    <flow id="11" begin="0.00" end="3600.00" probability="0.055556" type="typedist1" fromTaz="taz_04" toTaz="taz_01" departLane="free" departSpeed="max"/>
    <flow id="12" begin="0.00" end="3600.00" probability="0.055556" type="typedist1" fromTaz="taz_05" toTaz="taz_01" departLane="free" departSpeed="max"/>
    <flow id="13" begin="0.00" end="3600.00" probability="0.111111" type="typedist1" fromTaz="taz_05" toTaz="taz_03" departLane="free" departSpeed="max"/>
    <flow id="14" begin="0.00" end="3600.00" probability="0.166667" type="typedist1" fromTaz="taz_05" toTaz="taz_06" departLane="free" departSpeed="max"/>
    <flow id="15" begin="0.00" end="3600.00" probability="0.166667" type="typedist1" fromTaz="taz_05" toTaz="taz_07" departLane="free" departSpeed="max"/>
    <flow id="16" begin="0.00" end="3600.00" probability="0.055556" type="typedist1" fromTaz="taz_06" toTaz="taz_01" departLane="free" departSpeed="max"/>
    <flow id="17" begin="0.00" end="3600.00" probability="0.083333" type="typedist1" fromTaz="taz_06" toTaz="taz_03" departLane="free" departSpeed="max"/>
    <flow id="18" begin="0.00" end="3600.00" probability="0.111111" type="typedist1" fromTaz="taz_06" toTaz="taz_05" departLane="free" departSpeed="max"/>
    <flow id="19" begin="0.00" end="3600.00" probability="0.055556" type="typedist1" fromTaz="taz_06" toTaz="taz_08" departLane="free" departSpeed="max"/>
    <flow id="20" begin="0.00" end="3600.00" probability="0.055556" type="typedist1" fromTaz="taz_06" toTaz="taz_12" departLane="free" departSpeed="max"/>
    <flow id="21" begin="0.00" end="3600.00" probability="0.055556" type="typedist1" fromTaz="taz_07" toTaz="taz_05" departLane="free" departSpeed="max"/>
    <flow id="22" begin="0.00" end="3600.00" probability="0.055556" type="typedist1" fromTaz="taz_07" toTaz="taz_08" departLane="free" departSpeed="max"/>
    <flow id="23" begin="0.00" end="3600.00" probability="0.055556" type="typedist1" fromTaz="taz_07" toTaz="taz_09" departLane="free" departSpeed="max"/>
    <flow id="24" begin="0.00" end="3600.00" probability="0.055556" type="typedist1" fromTaz="taz_08" toTaz="taz_05" departLane="free" departSpeed="max"/>
    <flow id="25" begin="0.00" end="3600.00" probability="0.055556" type="typedist1" fromTaz="taz_08" toTaz="taz_06" departLane="free" departSpeed="max"/>
    <flow id="26" begin="0.00" end="3600.00" probability="0.055556" type="typedist1" fromTaz="taz_08" toTaz="taz_07" departLane="free" departSpeed="max"/>
    <flow id="27" begin="0.00" end="3600.00" probability="0.055556" type="typedist1" fromTaz="taz_08" toTaz="taz_09" departLane="free" departSpeed="max"/>
    <flow id="28" begin="0.00" end="3600.00" probability="0.055556" type="typedist1" fromTaz="taz_09" toTaz="taz_07" departLane="free" departSpeed="max"/>
    <flow id="29" begin="0.00" end="3600.00" probability="0.055556" type="typedist1" fromTaz="taz_09" toTaz="taz_08" departLane="free" departSpeed="max"/>
    <flow id="30" begin="0.00" end="3600.00" probability="0.055556" type="typedist1" fromTaz="taz_09" toTaz="taz_10" departLane="free" departSpeed="max"/>
    <flow id="31" begin="0.00" end="3600.00" probability="0.055556" type="typedist1" fromTaz="taz_10" toTaz="taz_09" departLane="free" departSpeed="max"/>
    <flow id="32" begin="0.00" end="3600.00" probability="0.055556" type="typedist1" fromTaz="taz_10" toTaz="taz_11" departLane="free" departSpeed="max"/>
    <flow id="33" begin="0.00" end="3600.00" probability="0.055556" type="typedist1" fromTaz="taz_11" toTaz="taz_10" departLane="free" departSpeed="max"/>
    <flow id="34" begin="0.00" end="3600.00" probability="0.055556" type="typedist1" fromTaz="taz_11" toTaz="taz_12" departLane="free" departSpeed="max"/>
    <flow id="35" begin="0.00" end="3600.00" probability="0.055556" type="typedist1" fromTaz="taz_12" toTaz="taz_04" departLane="free" departSpeed="max"/>
    <flow id="36" begin="0.00" end="3600.00" probability="0.055556" type="typedist1" fromTaz="taz_12" toTaz="taz_06" departLane="free" departSpeed="max"/>
    <flow id="37" begin="0.00" end="3600.00" probability="0.055556" type="typedist1" fromTaz="taz_12" toTaz="taz_10" departLane="free" departSpeed="max"/>
    <flow id="38" begin="0.00" end="3600.00" probability="0.055556" type="typedist1" fromTaz="taz_12" toTaz="taz_11" departLane="free" departSpeed="max"/>
</routes>
