<?xml version="1.0" encoding="UTF-8"?>
<configuration>

    <input>
        <net-file value="example43.net.xml"/>
        <route-files value="example43_taz.rou.xml"/>
    </input>

</configuration>
