<?xml version="1.0" encoding="UTF-8"?>

<!-- generated on 2023-08-20 17:47:21 by Eclipse SUMO netedit Version 1.18.0
<configuration xmlns:xsi="http://www.w3.org/2001/XMLSchema-instance" xsi:noNamespaceSchemaLocation="http://sumo.dlr.de/xsd/neteditConfiguration.xsd">

    <input>
        <additional-files value="C:\Users\ASUS\Desktop\第四章\4.3路网\example43.add.xml"/>
        <sumo-net-file value="C:\Users\ASUS\Desktop\第四章\4.3路网\example43.net.xml"/>
    </input>

    <output>
        <output-file value="C:\Users\ASUS\Desktop\第四章\4.3路网\example43.net.xml"/>
    </output>

    <processing>
        <geometry.min-radius.fix.railways value="false"/>
        <geometry.max-grade.fix value="false"/>
        <offset.disable-normalization value="true"/>
        <lefthand value="0"/>
    </processing>

    <junctions>
        <no-turnarounds value="true"/>
        <junctions.corner-detail value="5"/>
        <junctions.limit-turn-speed value="5.50"/>
        <rectangular-lane-cut value="0"/>
    </junctions>

    <pedestrian>
        <walkingareas value="0"/>
    </pedestrian>

    <netedit>
        <new-network value="false"/>
    </netedit>

</configuration>
-->

<net version="1.16" junctionCornerDetail="5" limitTurnSpeed="5.50" xmlns:xsi="http://www.w3.org/2001/XMLSchema-instance" xsi:noNamespaceSchemaLocation="http://sumo.dlr.de/xsd/net_file.xsd">

    <location netOffset="0.00,0.00" convBoundary="-300.00,-800.00,900.00,400.00" origBoundary="-10000000000.00,-10000000000.00,10000000000.00,10000000000.00" projParameter="!"/>

    <edge id=":J1_0" function="internal">
        <lane id=":J1_0_0" index="0" allow="moped bicycle" speed="7.46" length="11.29" width="6.00" shape="-15.00,122.00 -15.44,118.94 -16.75,116.75 -18.94,115.44 -22.00,115.00"/>
    </edge>
    <edge id=":J1_1" function="internal">
        <lane id=":J1_1_0" index="0" allow="moped bicycle" speed="13.89" length="44.00" width="6.00" shape="-15.00,122.00 -15.00,78.00"/>
    </edge>
    <edge id=":J1_2" function="internal">
        <lane id=":J1_2_0" index="0" allow="moped bicycle" speed="13.89" length="8.92" width="6.00" shape="-15.00,122.00 -11.17,113.95"/>
    </edge>
    <edge id=":J1_3" function="internal">
        <lane id=":J1_3_0" index="0" allow="private emergency authority army vip passenger hov taxi bus coach delivery truck trailer motorcycle evehicle custom1 custom2" speed="9.32" length="5.87" width="4.00" shape="-10.00,122.00 -10.75,116.75 -11.04,116.26"/>
    </edge>
    <edge id=":J1_4" function="internal">
        <lane id=":J1_4_0" index="0" allow="private emergency authority army vip passenger hov taxi bus coach delivery truck trailer motorcycle evehicle custom1 custom2" speed="13.89" length="44.00" width="4.00" shape="-10.00,122.00 -10.00,78.00"/>
        <lane id=":J1_4_1" index="1" allow="private emergency authority army vip passenger hov taxi bus coach delivery truck trailer motorcycle evehicle custom1 custom2" speed="13.89" length="44.00" width="4.00" shape="-6.00,122.00 -6.00,78.00"/>
        <lane id=":J1_4_2" index="2" allow="private emergency authority army vip passenger hov taxi bus coach delivery truck trailer motorcycle evehicle custom1 custom2" speed="13.89" length="44.00" width="4.00" shape="-2.00,122.00 -2.00,78.00"/>
    </edge>
    <edge id=":J1_7" function="internal">
        <lane id=":J1_7_0" index="0" allow="private emergency authority army vip passenger hov taxi bus coach delivery truck trailer motorcycle evehicle custom1 custom2" speed="12.48" length="35.75" width="4.00" shape="-2.00,122.00 0.50,114.50 6.67,106.67 14.50,100.50 22.00,98.00"/>
    </edge>
    <edge id=":J1_32" function="internal">
        <lane id=":J1_32_0" index="0" allow="moped bicycle" speed="13.89" length="44.71" width="6.00" shape="-11.17,113.95 -10.47,112.47 0.17,100.17 12.47,89.53 22.00,85.00"/>
    </edge>
    <edge id=":J1_33" function="internal">
        <lane id=":J1_33_0" index="0" allow="private emergency authority army vip passenger hov taxi bus coach delivery truck trailer motorcycle evehicle custom1 custom2" speed="9.32" length="13.48" width="4.00" shape="-11.04,116.26 -13.00,113.00 -16.75,110.75 -22.00,110.00"/>
    </edge>
    <edge id=":J1_8" function="internal">
        <lane id=":J1_8_0" index="0" allow="moped bicycle" speed="7.46" length="11.29" width="6.00" shape="22.00,115.00 18.94,115.44 16.75,116.75 15.44,118.94 15.00,122.00"/>
    </edge>
    <edge id=":J1_9" function="internal">
        <lane id=":J1_9_0" index="0" allow="moped bicycle" speed="13.89" length="44.00" width="6.00" shape="22.00,115.00 -22.00,115.00"/>
    </edge>
    <edge id=":J1_10" function="internal">
        <lane id=":J1_10_0" index="0" allow="moped bicycle" speed="13.89" length="53.63" width="6.00" shape="22.00,115.00 12.47,110.47 0.17,99.83 -10.47,87.53 -15.00,78.00"/>
    </edge>
    <edge id=":J1_11" function="internal">
        <lane id=":J1_11_0" index="0" allow="private emergency authority army vip passenger hov taxi bus coach delivery truck trailer motorcycle evehicle custom1 custom2" speed="9.32" length="5.87" width="4.00" shape="22.00,110.00 16.75,110.75 16.26,111.04"/>
    </edge>
    <edge id=":J1_12" function="internal">
        <lane id=":J1_12_0" index="0" allow="private emergency authority army vip passenger hov taxi bus coach delivery truck trailer motorcycle evehicle custom1 custom2" speed="13.89" length="44.00" width="4.00" shape="22.00,110.00 -22.00,110.00"/>
        <lane id=":J1_12_1" index="1" allow="private emergency authority army vip passenger hov taxi bus coach delivery truck trailer motorcycle evehicle custom1 custom2" speed="13.89" length="44.00" width="4.00" shape="22.00,106.00 -22.00,106.00"/>
        <lane id=":J1_12_2" index="2" allow="private emergency authority army vip passenger hov taxi bus coach delivery truck trailer motorcycle evehicle custom1 custom2" speed="13.89" length="44.00" width="4.00" shape="22.00,102.00 -22.00,102.00"/>
    </edge>
    <edge id=":J1_15" function="internal">
        <lane id=":J1_15_0" index="0" allow="private emergency authority army vip passenger hov taxi bus coach delivery truck trailer motorcycle evehicle custom1 custom2" speed="12.48" length="35.75" width="4.00" shape="22.00,102.00 14.50,99.50 6.67,93.33 0.50,85.50 -2.00,78.00"/>
    </edge>
    <edge id=":J1_34" function="internal">
        <lane id=":J1_34_0" index="0" allow="private emergency authority army vip passenger hov taxi bus coach delivery truck trailer motorcycle evehicle custom1 custom2" speed="9.32" length="13.48" width="4.00" shape="16.26,111.04 13.00,113.00 10.75,116.75 10.00,122.00"/>
    </edge>
    <edge id=":J1_16" function="internal">
        <lane id=":J1_16_0" index="0" allow="moped bicycle" speed="7.46" length="11.29" width="6.00" shape="15.00,78.00 15.44,81.06 16.75,83.25 18.94,84.56 22.00,85.00"/>
    </edge>
    <edge id=":J1_17" function="internal">
        <lane id=":J1_17_0" index="0" allow="moped bicycle" speed="13.89" length="44.00" width="6.00" shape="15.00,78.00 15.00,122.00"/>
    </edge>
    <edge id=":J1_18" function="internal">
        <lane id=":J1_18_0" index="0" allow="moped bicycle" speed="13.89" length="8.92" width="6.00" shape="15.00,78.00 11.17,86.05"/>
    </edge>
    <edge id=":J1_19" function="internal">
        <lane id=":J1_19_0" index="0" allow="private emergency authority army vip passenger hov taxi bus coach delivery truck trailer motorcycle evehicle custom1 custom2" speed="9.32" length="5.87" width="4.00" shape="10.00,78.00 10.75,83.25 11.04,83.74"/>
    </edge>
    <edge id=":J1_20" function="internal">
        <lane id=":J1_20_0" index="0" allow="private emergency authority army vip passenger hov taxi bus coach delivery truck trailer motorcycle evehicle custom1 custom2" speed="13.89" length="44.00" width="4.00" shape="10.00,78.00 10.00,122.00"/>
        <lane id=":J1_20_1" index="1" allow="private emergency authority army vip passenger hov taxi bus coach delivery truck trailer motorcycle evehicle custom1 custom2" speed="13.89" length="44.00" width="4.00" shape="6.00,78.00 6.00,122.00"/>
        <lane id=":J1_20_2" index="2" allow="private emergency authority army vip passenger hov taxi bus coach delivery truck trailer motorcycle evehicle custom1 custom2" speed="13.89" length="44.00" width="4.00" shape="2.00,78.00 2.00,122.00"/>
    </edge>
    <edge id=":J1_23" function="internal">
        <lane id=":J1_23_0" index="0" allow="private emergency authority army vip passenger hov taxi bus coach delivery truck trailer motorcycle evehicle custom1 custom2" speed="12.48" length="35.75" width="4.00" shape="2.00,78.00 -0.50,85.50 -6.67,93.33 -14.50,99.50 -22.00,102.00"/>
    </edge>
    <edge id=":J1_35" function="internal">
        <lane id=":J1_35_0" index="0" allow="moped bicycle" speed="13.89" length="44.71" width="6.00" shape="11.17,86.05 10.47,87.53 -0.17,99.83 -12.47,110.47 -22.00,115.00"/>
    </edge>
    <edge id=":J1_36" function="internal">
        <lane id=":J1_36_0" index="0" allow="private emergency authority army vip passenger hov taxi bus coach delivery truck trailer motorcycle evehicle custom1 custom2" speed="9.32" length="13.48" width="4.00" shape="11.04,83.74 13.00,87.00 16.75,89.25 22.00,90.00"/>
    </edge>
    <edge id=":J1_24" function="internal">
        <lane id=":J1_24_0" index="0" allow="moped bicycle" speed="7.46" length="11.29" width="6.00" shape="-22.00,85.00 -18.94,84.56 -16.75,83.25 -15.44,81.06 -15.00,78.00"/>
    </edge>
    <edge id=":J1_25" function="internal">
        <lane id=":J1_25_0" index="0" allow="moped bicycle" speed="13.89" length="44.00" width="6.00" shape="-22.00,85.00 22.00,85.00"/>
    </edge>
    <edge id=":J1_26" function="internal">
        <lane id=":J1_26_0" index="0" allow="moped bicycle" speed="13.89" length="53.63" width="6.00" shape="-22.00,85.00 -12.47,89.53 -0.17,100.17 10.47,112.47 15.00,122.00"/>
    </edge>
    <edge id=":J1_27" function="internal">
        <lane id=":J1_27_0" index="0" allow="private emergency authority army vip passenger hov taxi bus coach delivery truck trailer motorcycle evehicle custom1 custom2" speed="9.32" length="5.87" width="4.00" shape="-22.00,90.00 -16.75,89.25 -16.26,88.96"/>
    </edge>
    <edge id=":J1_28" function="internal">
        <lane id=":J1_28_0" index="0" allow="private emergency authority army vip passenger hov taxi bus coach delivery truck trailer motorcycle evehicle custom1 custom2" speed="13.89" length="44.00" width="4.00" shape="-22.00,90.00 22.00,90.00"/>
        <lane id=":J1_28_1" index="1" allow="private emergency authority army vip passenger hov taxi bus coach delivery truck trailer motorcycle evehicle custom1 custom2" speed="13.89" length="44.00" width="4.00" shape="-22.00,94.00 22.00,94.00"/>
        <lane id=":J1_28_2" index="2" allow="private emergency authority army vip passenger hov taxi bus coach delivery truck trailer motorcycle evehicle custom1 custom2" speed="13.89" length="44.00" width="4.00" shape="-22.00,98.00 22.00,98.00"/>
    </edge>
    <edge id=":J1_31" function="internal">
        <lane id=":J1_31_0" index="0" allow="private emergency authority army vip passenger hov taxi bus coach delivery truck trailer motorcycle evehicle custom1 custom2" speed="12.48" length="35.75" width="4.00" shape="-22.00,98.00 -14.50,100.50 -6.67,106.67 -0.50,114.50 2.00,122.00"/>
    </edge>
    <edge id=":J1_37" function="internal">
        <lane id=":J1_37_0" index="0" allow="private emergency authority army vip passenger hov taxi bus coach delivery truck trailer motorcycle evehicle custom1 custom2" speed="9.32" length="13.48" width="4.00" shape="-16.26,88.96 -13.00,87.00 -10.75,83.25 -10.00,78.00"/>
    </edge>
    <edge id=":J102_0" function="internal">
        <lane id=":J102_0_0" index="0" allow="moped bicycle" speed="7.46" length="11.29" width="6.00" shape="-15.00,-178.00 -15.44,-181.06 -16.75,-183.25 -18.94,-184.56 -22.00,-185.00"/>
    </edge>
    <edge id=":J102_1" function="internal">
        <lane id=":J102_1_0" index="0" allow="moped bicycle" speed="13.89" length="44.00" width="6.00" shape="-15.00,-178.00 -15.00,-222.00"/>
    </edge>
    <edge id=":J102_2" function="internal">
        <lane id=":J102_2_0" index="0" allow="moped bicycle" speed="13.89" length="8.92" width="6.00" shape="-15.00,-178.00 -11.17,-186.05"/>
    </edge>
    <edge id=":J102_3" function="internal">
        <lane id=":J102_3_0" index="0" allow="private emergency authority army vip passenger hov taxi bus coach delivery truck trailer motorcycle evehicle custom1 custom2" speed="9.32" length="5.87" width="4.00" shape="-10.00,-178.00 -10.75,-183.25 -11.04,-183.74"/>
    </edge>
    <edge id=":J102_4" function="internal">
        <lane id=":J102_4_0" index="0" allow="private emergency authority army vip passenger hov taxi bus coach delivery truck trailer motorcycle evehicle custom1 custom2" speed="13.89" length="44.00" width="4.00" shape="-10.00,-178.00 -10.00,-222.00"/>
        <lane id=":J102_4_1" index="1" allow="private emergency authority army vip passenger hov taxi bus coach delivery truck trailer motorcycle evehicle custom1 custom2" speed="13.89" length="44.00" width="4.00" shape="-6.00,-178.00 -6.00,-222.00"/>
        <lane id=":J102_4_2" index="2" allow="private emergency authority army vip passenger hov taxi bus coach delivery truck trailer motorcycle evehicle custom1 custom2" speed="13.89" length="44.00" width="4.00" shape="-2.00,-178.00 -2.00,-222.00"/>
    </edge>
    <edge id=":J102_7" function="internal">
        <lane id=":J102_7_0" index="0" allow="private emergency authority army vip passenger hov taxi bus coach delivery truck trailer motorcycle evehicle custom1 custom2" speed="12.48" length="35.75" width="4.00" shape="-2.00,-178.00 0.50,-185.50 6.67,-193.33 14.50,-199.50 22.00,-202.00"/>
    </edge>
    <edge id=":J102_32" function="internal">
        <lane id=":J102_32_0" index="0" allow="moped bicycle" speed="13.89" length="44.71" width="6.00" shape="-11.17,-186.05 -10.47,-187.53 0.17,-199.83 12.47,-210.47 22.00,-215.00"/>
    </edge>
    <edge id=":J102_33" function="internal">
        <lane id=":J102_33_0" index="0" allow="private emergency authority army vip passenger hov taxi bus coach delivery truck trailer motorcycle evehicle custom1 custom2" speed="9.32" length="13.48" width="4.00" shape="-11.04,-183.74 -13.00,-187.00 -16.75,-189.25 -22.00,-190.00"/>
    </edge>
    <edge id=":J102_8" function="internal">
        <lane id=":J102_8_0" index="0" allow="moped bicycle" speed="7.46" length="11.29" width="6.00" shape="22.00,-185.00 18.94,-184.56 16.75,-183.25 15.44,-181.06 15.00,-178.00"/>
    </edge>
    <edge id=":J102_9" function="internal">
        <lane id=":J102_9_0" index="0" allow="moped bicycle" speed="13.89" length="44.00" width="6.00" shape="22.00,-185.00 -22.00,-185.00"/>
    </edge>
    <edge id=":J102_10" function="internal">
        <lane id=":J102_10_0" index="0" allow="moped bicycle" speed="13.89" length="53.63" width="6.00" shape="22.00,-185.00 12.47,-189.53 0.17,-200.17 -10.47,-212.47 -15.00,-222.00"/>
    </edge>
    <edge id=":J102_11" function="internal">
        <lane id=":J102_11_0" index="0" allow="private emergency authority army vip passenger hov taxi bus coach delivery truck trailer motorcycle evehicle custom1 custom2" speed="9.32" length="5.87" width="4.00" shape="22.00,-190.00 16.75,-189.25 16.26,-188.96"/>
    </edge>
    <edge id=":J102_12" function="internal">
        <lane id=":J102_12_0" index="0" allow="private emergency authority army vip passenger hov taxi bus coach delivery truck trailer motorcycle evehicle custom1 custom2" speed="13.89" length="44.00" width="4.00" shape="22.00,-190.00 -22.00,-190.00"/>
        <lane id=":J102_12_1" index="1" allow="private emergency authority army vip passenger hov taxi bus coach delivery truck trailer motorcycle evehicle custom1 custom2" speed="13.89" length="44.00" width="4.00" shape="22.00,-194.00 -22.00,-194.00"/>
        <lane id=":J102_12_2" index="2" allow="private emergency authority army vip passenger hov taxi bus coach delivery truck trailer motorcycle evehicle custom1 custom2" speed="13.89" length="44.00" width="4.00" shape="22.00,-198.00 -22.00,-198.00"/>
    </edge>
    <edge id=":J102_15" function="internal">
        <lane id=":J102_15_0" index="0" allow="private emergency authority army vip passenger hov taxi bus coach delivery truck trailer motorcycle evehicle custom1 custom2" speed="12.48" length="35.75" width="4.00" shape="22.00,-198.00 14.50,-200.50 6.67,-206.67 0.50,-214.50 -2.00,-222.00"/>
    </edge>
    <edge id=":J102_34" function="internal">
        <lane id=":J102_34_0" index="0" allow="private emergency authority army vip passenger hov taxi bus coach delivery truck trailer motorcycle evehicle custom1 custom2" speed="9.32" length="13.48" width="4.00" shape="16.26,-188.96 13.00,-187.00 10.75,-183.25 10.00,-178.00"/>
    </edge>
    <edge id=":J102_16" function="internal">
        <lane id=":J102_16_0" index="0" allow="moped bicycle" speed="7.46" length="11.29" width="6.00" shape="15.00,-222.00 15.44,-218.94 16.75,-216.75 18.94,-215.44 22.00,-215.00"/>
    </edge>
    <edge id=":J102_17" function="internal">
        <lane id=":J102_17_0" index="0" allow="moped bicycle" speed="13.89" length="44.00" width="6.00" shape="15.00,-222.00 15.00,-178.00"/>
    </edge>
    <edge id=":J102_18" function="internal">
        <lane id=":J102_18_0" index="0" allow="moped bicycle" speed="13.89" length="8.92" width="6.00" shape="15.00,-222.00 11.17,-213.95"/>
    </edge>
    <edge id=":J102_19" function="internal">
        <lane id=":J102_19_0" index="0" allow="private emergency authority army vip passenger hov taxi bus coach delivery truck trailer motorcycle evehicle custom1 custom2" speed="9.32" length="5.87" width="4.00" shape="10.00,-222.00 10.75,-216.75 11.04,-216.26"/>
    </edge>
    <edge id=":J102_20" function="internal">
        <lane id=":J102_20_0" index="0" allow="private emergency authority army vip passenger hov taxi bus coach delivery truck trailer motorcycle evehicle custom1 custom2" speed="13.89" length="44.00" width="4.00" shape="10.00,-222.00 10.00,-178.00"/>
        <lane id=":J102_20_1" index="1" allow="private emergency authority army vip passenger hov taxi bus coach delivery truck trailer motorcycle evehicle custom1 custom2" speed="13.89" length="44.00" width="4.00" shape="6.00,-222.00 6.00,-178.00"/>
        <lane id=":J102_20_2" index="2" allow="private emergency authority army vip passenger hov taxi bus coach delivery truck trailer motorcycle evehicle custom1 custom2" speed="13.89" length="44.00" width="4.00" shape="2.00,-222.00 2.00,-178.00"/>
    </edge>
    <edge id=":J102_23" function="internal">
        <lane id=":J102_23_0" index="0" allow="private emergency authority army vip passenger hov taxi bus coach delivery truck trailer motorcycle evehicle custom1 custom2" speed="12.48" length="35.75" width="4.00" shape="2.00,-222.00 -0.50,-214.50 -6.67,-206.67 -14.50,-200.50 -22.00,-198.00"/>
    </edge>
    <edge id=":J102_35" function="internal">
        <lane id=":J102_35_0" index="0" allow="moped bicycle" speed="13.89" length="44.71" width="6.00" shape="11.17,-213.95 10.47,-212.47 -0.17,-200.17 -12.47,-189.53 -22.00,-185.00"/>
    </edge>
    <edge id=":J102_36" function="internal">
        <lane id=":J102_36_0" index="0" allow="private emergency authority army vip passenger hov taxi bus coach delivery truck trailer motorcycle evehicle custom1 custom2" speed="9.32" length="13.48" width="4.00" shape="11.04,-216.26 13.00,-213.00 16.75,-210.75 22.00,-210.00"/>
    </edge>
    <edge id=":J102_24" function="internal">
        <lane id=":J102_24_0" index="0" allow="moped bicycle" speed="7.46" length="11.29" width="6.00" shape="-22.00,-215.00 -18.94,-215.44 -16.75,-216.75 -15.44,-218.94 -15.00,-222.00"/>
    </edge>
    <edge id=":J102_25" function="internal">
        <lane id=":J102_25_0" index="0" allow="moped bicycle" speed="13.89" length="44.00" width="6.00" shape="-22.00,-215.00 22.00,-215.00"/>
    </edge>
    <edge id=":J102_26" function="internal">
        <lane id=":J102_26_0" index="0" allow="moped bicycle" speed="13.89" length="53.63" width="6.00" shape="-22.00,-215.00 -12.47,-210.47 -0.17,-199.83 10.47,-187.53 15.00,-178.00"/>
    </edge>
    <edge id=":J102_27" function="internal">
        <lane id=":J102_27_0" index="0" allow="private emergency authority army vip passenger hov taxi bus coach delivery truck trailer motorcycle evehicle custom1 custom2" speed="9.32" length="5.87" width="4.00" shape="-22.00,-210.00 -16.75,-210.75 -16.26,-211.04"/>
    </edge>
    <edge id=":J102_28" function="internal">
        <lane id=":J102_28_0" index="0" allow="private emergency authority army vip passenger hov taxi bus coach delivery truck trailer motorcycle evehicle custom1 custom2" speed="13.89" length="44.00" width="4.00" shape="-22.00,-210.00 22.00,-210.00"/>
        <lane id=":J102_28_1" index="1" allow="private emergency authority army vip passenger hov taxi bus coach delivery truck trailer motorcycle evehicle custom1 custom2" speed="13.89" length="44.00" width="4.00" shape="-22.00,-206.00 22.00,-206.00"/>
        <lane id=":J102_28_2" index="2" allow="private emergency authority army vip passenger hov taxi bus coach delivery truck trailer motorcycle evehicle custom1 custom2" speed="13.89" length="44.00" width="4.00" shape="-22.00,-202.00 22.00,-202.00"/>
    </edge>
    <edge id=":J102_31" function="internal">
        <lane id=":J102_31_0" index="0" allow="private emergency authority army vip passenger hov taxi bus coach delivery truck trailer motorcycle evehicle custom1 custom2" speed="12.48" length="35.75" width="4.00" shape="-22.00,-202.00 -14.50,-199.50 -6.67,-193.33 -0.50,-185.50 2.00,-178.00"/>
    </edge>
    <edge id=":J102_37" function="internal">
        <lane id=":J102_37_0" index="0" allow="private emergency authority army vip passenger hov taxi bus coach delivery truck trailer motorcycle evehicle custom1 custom2" speed="9.32" length="13.48" width="4.00" shape="-16.26,-211.04 -13.00,-213.00 -10.75,-216.75 -10.00,-222.00"/>
    </edge>
    <edge id=":J111_0" function="internal">
        <lane id=":J111_0_0" index="0" allow="moped bicycle" speed="7.46" length="11.29" width="6.00" shape="285.00,-178.00 284.56,-181.06 283.25,-183.25 281.06,-184.56 278.00,-185.00"/>
    </edge>
    <edge id=":J111_1" function="internal">
        <lane id=":J111_1_0" index="0" allow="moped bicycle" speed="13.89" length="44.00" width="6.00" shape="285.00,-178.00 285.00,-222.00"/>
    </edge>
    <edge id=":J111_2" function="internal">
        <lane id=":J111_2_0" index="0" allow="moped bicycle" speed="13.89" length="8.92" width="6.00" shape="285.00,-178.00 288.83,-186.05"/>
    </edge>
    <edge id=":J111_3" function="internal">
        <lane id=":J111_3_0" index="0" allow="private emergency authority army vip passenger hov taxi bus coach delivery truck trailer motorcycle evehicle custom1 custom2" speed="9.32" length="5.87" width="4.00" shape="290.00,-178.00 289.25,-183.25 288.96,-183.74"/>
    </edge>
    <edge id=":J111_4" function="internal">
        <lane id=":J111_4_0" index="0" allow="private emergency authority army vip passenger hov taxi bus coach delivery truck trailer motorcycle evehicle custom1 custom2" speed="13.89" length="44.00" width="4.00" shape="290.00,-178.00 290.00,-222.00"/>
        <lane id=":J111_4_1" index="1" allow="private emergency authority army vip passenger hov taxi bus coach delivery truck trailer motorcycle evehicle custom1 custom2" speed="13.89" length="44.00" width="4.00" shape="294.00,-178.00 294.00,-222.00"/>
        <lane id=":J111_4_2" index="2" allow="private emergency authority army vip passenger hov taxi bus coach delivery truck trailer motorcycle evehicle custom1 custom2" speed="13.89" length="44.00" width="4.00" shape="298.00,-178.00 298.00,-222.00"/>
    </edge>
    <edge id=":J111_7" function="internal">
        <lane id=":J111_7_0" index="0" allow="private emergency authority army vip passenger hov taxi bus coach delivery truck trailer motorcycle evehicle custom1 custom2" speed="12.48" length="35.75" width="4.00" shape="298.00,-178.00 300.50,-185.50 306.67,-193.33 314.50,-199.50 322.00,-202.00"/>
    </edge>
    <edge id=":J111_32" function="internal">
        <lane id=":J111_32_0" index="0" allow="moped bicycle" speed="13.89" length="44.71" width="6.00" shape="288.83,-186.05 289.53,-187.53 300.17,-199.83 312.47,-210.47 322.00,-215.00"/>
    </edge>
    <edge id=":J111_33" function="internal">
        <lane id=":J111_33_0" index="0" allow="private emergency authority army vip passenger hov taxi bus coach delivery truck trailer motorcycle evehicle custom1 custom2" speed="9.32" length="13.48" width="4.00" shape="288.96,-183.74 287.00,-187.00 283.25,-189.25 278.00,-190.00"/>
    </edge>
    <edge id=":J111_8" function="internal">
        <lane id=":J111_8_0" index="0" allow="moped bicycle" speed="7.46" length="11.29" width="6.00" shape="322.00,-185.00 318.94,-184.56 316.75,-183.25 315.44,-181.06 315.00,-178.00"/>
    </edge>
    <edge id=":J111_9" function="internal">
        <lane id=":J111_9_0" index="0" allow="moped bicycle" speed="13.89" length="44.00" width="6.00" shape="322.00,-185.00 278.00,-185.00"/>
    </edge>
    <edge id=":J111_10" function="internal">
        <lane id=":J111_10_0" index="0" allow="moped bicycle" speed="13.89" length="53.63" width="6.00" shape="322.00,-185.00 312.47,-189.53 300.17,-200.17 289.53,-212.47 285.00,-222.00"/>
    </edge>
    <edge id=":J111_11" function="internal">
        <lane id=":J111_11_0" index="0" allow="private emergency authority army vip passenger hov taxi bus coach delivery truck trailer motorcycle evehicle custom1 custom2" speed="9.32" length="5.87" width="4.00" shape="322.00,-190.00 316.75,-189.25 316.26,-188.96"/>
    </edge>
    <edge id=":J111_12" function="internal">
        <lane id=":J111_12_0" index="0" allow="private emergency authority army vip passenger hov taxi bus coach delivery truck trailer motorcycle evehicle custom1 custom2" speed="13.89" length="44.00" width="4.00" shape="322.00,-190.00 278.00,-190.00"/>
        <lane id=":J111_12_1" index="1" allow="private emergency authority army vip passenger hov taxi bus coach delivery truck trailer motorcycle evehicle custom1 custom2" speed="13.89" length="44.00" width="4.00" shape="322.00,-194.00 278.00,-194.00"/>
        <lane id=":J111_12_2" index="2" allow="private emergency authority army vip passenger hov taxi bus coach delivery truck trailer motorcycle evehicle custom1 custom2" speed="13.89" length="44.00" width="4.00" shape="322.00,-198.00 278.00,-198.00"/>
    </edge>
    <edge id=":J111_15" function="internal">
        <lane id=":J111_15_0" index="0" allow="private emergency authority army vip passenger hov taxi bus coach delivery truck trailer motorcycle evehicle custom1 custom2" speed="12.48" length="35.75" width="4.00" shape="322.00,-198.00 314.50,-200.50 306.67,-206.67 300.50,-214.50 298.00,-222.00"/>
    </edge>
    <edge id=":J111_34" function="internal">
        <lane id=":J111_34_0" index="0" allow="private emergency authority army vip passenger hov taxi bus coach delivery truck trailer motorcycle evehicle custom1 custom2" speed="9.32" length="13.48" width="4.00" shape="316.26,-188.96 313.00,-187.00 310.75,-183.25 310.00,-178.00"/>
    </edge>
    <edge id=":J111_16" function="internal">
        <lane id=":J111_16_0" index="0" allow="moped bicycle" speed="7.46" length="11.29" width="6.00" shape="315.00,-222.00 315.44,-218.94 316.75,-216.75 318.94,-215.44 322.00,-215.00"/>
    </edge>
    <edge id=":J111_17" function="internal">
        <lane id=":J111_17_0" index="0" allow="moped bicycle" speed="13.89" length="44.00" width="6.00" shape="315.00,-222.00 315.00,-178.00"/>
    </edge>
    <edge id=":J111_18" function="internal">
        <lane id=":J111_18_0" index="0" allow="moped bicycle" speed="13.89" length="8.92" width="6.00" shape="315.00,-222.00 311.17,-213.95"/>
    </edge>
    <edge id=":J111_19" function="internal">
        <lane id=":J111_19_0" index="0" allow="private emergency authority army vip passenger hov taxi bus coach delivery truck trailer motorcycle evehicle custom1 custom2" speed="9.32" length="5.87" width="4.00" shape="310.00,-222.00 310.75,-216.75 311.04,-216.26"/>
    </edge>
    <edge id=":J111_20" function="internal">
        <lane id=":J111_20_0" index="0" allow="private emergency authority army vip passenger hov taxi bus coach delivery truck trailer motorcycle evehicle custom1 custom2" speed="13.89" length="44.00" width="4.00" shape="310.00,-222.00 310.00,-178.00"/>
        <lane id=":J111_20_1" index="1" allow="private emergency authority army vip passenger hov taxi bus coach delivery truck trailer motorcycle evehicle custom1 custom2" speed="13.89" length="44.00" width="4.00" shape="306.00,-222.00 306.00,-178.00"/>
        <lane id=":J111_20_2" index="2" allow="private emergency authority army vip passenger hov taxi bus coach delivery truck trailer motorcycle evehicle custom1 custom2" speed="13.89" length="44.00" width="4.00" shape="302.00,-222.00 302.00,-178.00"/>
    </edge>
    <edge id=":J111_23" function="internal">
        <lane id=":J111_23_0" index="0" allow="private emergency authority army vip passenger hov taxi bus coach delivery truck trailer motorcycle evehicle custom1 custom2" speed="12.48" length="35.75" width="4.00" shape="302.00,-222.00 299.50,-214.50 293.33,-206.67 285.50,-200.50 278.00,-198.00"/>
    </edge>
    <edge id=":J111_35" function="internal">
        <lane id=":J111_35_0" index="0" allow="moped bicycle" speed="13.89" length="44.71" width="6.00" shape="311.17,-213.95 310.47,-212.47 299.83,-200.17 287.53,-189.53 278.00,-185.00"/>
    </edge>
    <edge id=":J111_36" function="internal">