<?xml version="1.0" encoding="UTF-8"?>

<!-- generated on 2023-08-19 12:56:46 by Eclipse SUMO netedit Version 1.18.0
<configuration xmlns:xsi="http://www.w3.org/2001/XMLSchema-instance" xsi:noNamespaceSchemaLocation="http://sumo.dlr.de/xsd/neteditConfiguration.xsd">

    <input>
        <sumo-net-file value="C:\Users\ASUS\Desktop\第四章\4.3路网\example43.net.xml"/>
    </input>

    <processing>
        <geometry.min-radius.fix.railways value="false"/>
        <geometry.max-grade.fix value="false"/>
        <offset.disable-normalization value="true"/>
        <lefthand value="0"/>
    </processing>

    <junctions>
        <no-turnarounds value="true"/>
        <junctions.corner-detail value="5"/>
        <junctions.limit-turn-speed value="5.50"/>
        <rectangular-lane-cut value="0"/>
    </junctions>

    <pedestrian>
        <walkingareas value="0"/>
    </pedestrian>

    <netedit>
        <new-network value="false"/>
    </netedit>

</configuration>
-->

<additional xmlns:xsi="http://www.w3.org/2001/XMLSchema-instance" xsi:noNamespaceSchemaLocation="http://sumo.dlr.de/xsd/additional_file.xsd">
    <tlLogic id="J102" type="static" programID="0" offset="0">
        <phase duration="45" state="gGGgGGGGrrrrrrrrgGGgGGGGrrrrrrrr"/>
        <phase duration="3" state="gyygyyyyrrrrrrrrgyygyyyyrrrrrrrr"/>
        <phase duration="2" state="rrrrrrrrrrrrrrrrrrrrrrrrrrrrrrrr"/>
        <phase duration="75" state="rrrrrrrrgGGgGGGGrrrrrrrrgGGgGGGG"/>
        <phase duration="3" state="rrrrrrrrgyygyyyyrrrrrrrrgyygyyyy"/>
        <phase duration="2" state="rrrrrrrrrrrrrrrrrrrrrrrrrrrrrrrr"/>
    </tlLogic>
</additional>
