<?xml version="1.0" encoding="UTF-8"?>

<!-- generated on 2025-04-28 15:37:41 by Eclipse SUMO netedit Version 1.22.0
<neteditConfiguration xmlns:xsi="http://www.w3.org/2001/XMLSchema-instance" xsi:noNamespaceSchemaLocation="http://sumo.dlr.de/xsd/neteditConfiguration.xsd">

    <input>
        <sumocfg-file value="C:\Users\赵森\Desktop\SimFoC\SSimEx.sumocfg"/>
        <sumo-net-file value="C:\Users\赵森\Desktop\SimFoC\SSimNet.net.xml"/>
    </input>

    <output>
        <output.street-names value="true"/>
    </output>

    <processing>
        <geometry.min-radius.fix.railways value="false"/>
        <geometry.max-grade.fix value="false"/>
        <offset.disable-normalization value="true"/>
        <lefthand value="0"/>
    </processing>

    <junctions>
        <no-internal-links value="false"/>
        <no-turnarounds value="true"/>
        <junctions.corner-detail value="5"/>
        <junctions.limit-turn-speed value="5.50"/>
        <rectangular-lane-cut value="0"/>
    </junctions>

    <pedestrian>
        <walkingareas value="0"/>
    </pedestrian>

    <netedit>
        <new-network value="false"/>
    </netedit>

    <visualisation>
        <gui-settings-file value="C:\Users\赵森\Desktop\SimFoC\viewsettings.xml"/>
    </visualisation>

</neteditConfiguration>
-->

<nodes version="1.20" xmlns:xsi="http://www.w3.org/2001/XMLSchema-instance" xsi:noNamespaceSchemaLocation="http://sumo.dlr.de/xsd/nodes_file.xsd">
    <location netOffset="0.00,0.00" convBoundary="-537.19,-191.97,2.56,194.19" origBoundary="-10000000000.00,-10000000000.00,10000000000.00,10000000000.00" projParameter="!"/>

    <node id="J0" x="-537.19" y="1.60" type="dead_end"/>
    <node id="J1" x="-355.99" y="1.08" type="priority"/>
    <node id="J2" x="-355.49" y="-191.97" type="dead_end"/>
    <node id="J3" x="-355.83" y="194.19" type="dead_end"/>
    <node id="J4" x="2.56" y="0.67" type="dead_end"/>
</nodes>
