<?xml version="1.0" encoding="UTF-8"?>

<!-- generated on 2024-09-03 15:39:26 by Eclipse SUMO netedit Version 1.18.0
<configuration xmlns:xsi="http://www.w3.org/2001/XMLSchema-instance" xsi:noNamespaceSchemaLocation="http://sumo.dlr.de/xsd/neteditConfiguration.xsd">

    <input>
        <sumo-net-file value="D:\新算法\9_nodes.net.xml"/>
    </input>

    <output>
        <tls-file value="D:\新算法\TLS_9_NODES.tll.xml"/>
        <output-file value="D:\新算法\9_nodes.net.xml"/>
    </output>

    <processing>
        <geometry.min-radius.fix.railways value="false"/>
        <geometry.max-grade.fix value="false"/>
        <offset.disable-normalization value="true"/>
        <lefthand value="0"/>
    </processing>

    <junctions>
        <no-turnarounds value="true"/>
        <junctions.corner-detail value="5"/>
        <junctions.limit-turn-speed value="5.50"/>
        <rectangular-lane-cut value="0"/>
    </junctions>

    <pedestrian>
        <walkingareas value="0"/>
    </pedestrian>

</configuration>
-->

<net version="1.16" junctionCornerDetail="5" limitTurnSpeed="5.50" xmlns:xsi="http://www.w3.org/2001/XMLSchema-instance" xsi:noNamespaceSchemaLocation="http://sumo.dlr.de/xsd/net_file.xsd">

    <location netOffset="0.00,0.00" convBoundary="343.67,-301.14,1881.52,-82.73" origBoundary="-10000000000.00,-10000000000.00,10000000000.00,10000000000.00" projParameter="!"/>

    <edge id=":BEIHUAN_0" function="internal">
        <lane id=":BEIHUAN_0_0" index="0" speed="6.51" length="9.05" shape="575.33,-168.93 574.98,-171.38 573.93,-173.13 572.17,-174.18 569.71,-174.53"/>
        <lane id=":BEIHUAN_0_1" index="1" speed="7.33" length="11.74" shape="575.33,-168.93 574.98,-172.78 573.93,-175.53 572.17,-177.18 569.71,-177.73"/>
    </edge>
    <edge id=":BEIHUAN_2" function="internal">
        <lane id=":BEIHUAN_2_0" index="0" speed="13.89" length="40.02" shape="575.33,-168.93 575.27,-208.94"/>
        <lane id=":BEIHUAN_2_1" index="1" speed="13.89" length="40.02" shape="578.53,-168.93 578.47,-208.95"/>
        <lane id=":BEIHUAN_2_2" index="2" speed="13.89" length="40.02" shape="581.73,-168.93 581.67,-208.96"/>
    </edge>
    <edge id=":BEIHUAN_5" function="internal">
        <lane id=":BEIHUAN_5_0" index="0" speed="11.91" length="7.91" shape="581.73,-168.93 582.42,-176.81"/>
        <lane id=":BEIHUAN_5_1" index="1" speed="11.41" length="6.93" shape="581.73,-168.93 582.43,-175.82"/>
    </edge>
    <edge id=":BEIHUAN_28" function="internal">
        <lane id=":BEIHUAN_28_0" index="0" speed="11.91" length="24.72" shape="582.42,-176.81 582.68,-179.78 585.53,-187.54 590.27,-192.21 596.91,-193.77"/>
    </edge>
    <edge id=":BEIHUAN_29" function="internal">
        <lane id=":BEIHUAN_29_0" index="0" speed="11.41" length="22.94" shape="582.43,-175.82 582.68,-178.38 585.53,-185.14 590.28,-189.21 596.92,-190.57"/>
    </edge>
    <edge id=":BEIHUAN_7" function="internal">
        <lane id=":BEIHUAN_7_0" index="0" speed="6.53" length="9.09" shape="596.96,-174.57 594.50,-174.22 592.74,-173.15 591.68,-171.39 591.33,-168.92"/>
    </edge>
    <edge id=":BEIHUAN_8" function="internal">
        <lane id=":BEIHUAN_8_0" index="0" speed="13.89" length="27.24" shape="596.96,-174.57 569.71,-174.53"/>
        <lane id=":BEIHUAN_8_1" index="1" speed="13.89" length="27.24" shape="596.95,-177.77 569.71,-177.73"/>
        <lane id=":BEIHUAN_8_2" index="2" speed="13.89" length="27.24" shape="596.94,-180.97 569.71,-180.93"/>
        <lane id=":BEIHUAN_8_3" index="3" speed="13.89" length="27.24" shape="596.94,-184.17 569.70,-184.13"/>
        <lane id=":BEIHUAN_8_4" index="4" speed="13.89" length="27.24" shape="596.93,-187.37 569.70,-187.33"/>
    </edge>
    <edge id=":BEIHUAN_13" function="internal">
        <lane id=":BEIHUAN_13_0" index="0" speed="11.40" length="3.62" shape="596.93,-187.37 593.38,-188.09"/>
    </edge>
    <edge id=":BEIHUAN_30" function="internal">
        <lane id=":BEIHUAN_30_0" index="0" speed="11.40" length="26.25" shape="593.38,-188.09 590.28,-188.71 585.52,-192.75 582.65,-199.50 581.67,-208.96"/>
    </edge>
    <edge id=":BEIHUAN_14" function="internal">
        <lane id=":BEIHUAN_14_0" index="0" speed="6.52" length="9.06" shape="591.27,-208.99 591.63,-206.53 592.68,-204.77 594.44,-203.72 596.89,-203.37"/>
        <lane id=":BEIHUAN_14_1" index="1" speed="7.34" length="11.75" shape="591.27,-208.99 591.63,-205.13 592.69,-202.37 594.45,-200.72 596.90,-200.17"/>
    </edge>
    <edge id=":BEIHUAN_16" function="internal">
        <lane id=":BEIHUAN_16_0" index="0" speed="13.89" length="40.06" shape="591.27,-208.99 591.33,-168.92"/>
        <lane id=":BEIHUAN_16_1" index="1" speed="13.89" length="40.06" shape="588.07,-208.98 588.13,-168.93"/>
        <lane id=":BEIHUAN_16_2" index="2" speed="13.89" length="40.06" shape="584.87,-208.97 584.93,-168.93"/>
    </edge>
    <edge id=":BEIHUAN_19" function="internal">
        <lane id=":BEIHUAN_19_0" index="0" speed="11.89" length="8.22" shape="584.87,-208.97 584.18,-200.78"/>
        <lane id=":BEIHUAN_19_1" index="1" speed="11.39" length="7.17" shape="584.87,-208.97 584.18,-201.84"/>
    </edge>
    <edge id=":BEIHUAN_31" function="internal">
        <lane id=":BEIHUAN_31_0" index="0" speed="11.89" length="24.44" shape="584.18,-200.78 583.95,-198.11 581.12,-190.35 576.37,-185.69 569.70,-184.13"/>
    </edge>
    <edge id=":BEIHUAN_32" function="internal">
        <lane id=":BEIHUAN_32_0" index="0" speed="11.39" length="22.73" shape="584.18,-201.84 583.95,-199.51 581.12,-192.75 576.36,-188.69 569.70,-187.33"/>
    </edge>
    <edge id=":BEIHUAN_21" function="internal">
        <lane id=":BEIHUAN_21_0" index="0" speed="6.50" length="9.03" shape="569.69,-203.33 572.14,-203.68 573.88,-204.73 574.93,-206.49 575.27,-208.94"/>
    </edge>
    <edge id=":BEIHUAN_22" function="internal">
        <lane id=":BEIHUAN_22_0" index="0" speed="13.89" length="27.21" shape="569.69,-203.33 596.89,-203.37"/>
        <lane id=":BEIHUAN_22_1" index="1" speed="13.89" length="27.21" shape="569.69,-200.13 596.90,-200.17"/>
        <lane id=":BEIHUAN_22_2" index="2" speed="13.89" length="27.21" shape="569.69,-196.93 596.90,-196.97"/>
        <lane id=":BEIHUAN_22_3" index="3" speed="13.89" length="27.21" shape="569.69,-193.73 596.91,-193.77"/>
        <lane id=":BEIHUAN_22_4" index="4" speed="13.89" length="27.21" shape="569.70,-190.53 596.92,-190.57"/>
    </edge>
    <edge id=":BEIHUAN_27" function="internal">
        <lane id=":BEIHUAN_27_0" index="0" speed="11.40" length="3.60" shape="569.70,-190.53 573.23,-189.82"/>
    </edge>
    <edge id=":BEIHUAN_33" function="internal">
        <lane id=":BEIHUAN_33_0" index="0" speed="11.40" length="26.29" shape="573.23,-189.82 576.37,-189.18 581.13,-185.13 583.98,-178.38 584.93,-168.93"/>
    </edge>
    <edge id=":JINXIU_0" function="internal">
        <lane id=":JINXIU_0_0" index="0" speed="6.53" length="9.08" shape="1761.08,-173.98 1758.63,-173.63 1756.88,-172.57 1755.82,-170.80 1755.46,-168.32"/>
    </edge>
    <edge id=":JINXIU_1" function="internal">
        <lane id=":JINXIU_1_0" index="0" speed="13.89" length="27.45" shape="1761.08,-173.98 1733.63,-173.99"/>
        <lane id=":JINXIU_1_1" index="1" speed="13.89" length="27.45" shape="1761.08,-177.18 1733.63,-177.19"/>
        <lane id=":JINXIU_1_2" index="2" speed="13.89" length="27.45" shape="1761.09,-180.38 1733.63,-180.39"/>
        <lane id=":JINXIU_1_3" index="3" speed="13.89" length="27.45" shape="1761.09,-183.58 1733.63,-183.59"/>
        <lane id=":JINXIU_1_4" index="4" speed="13.89" length="27.45" shape="1761.09,-186.78 1733.63,-186.79"/>
    </edge>
    <edge id=":JINXIU_6" function="internal">
        <lane id=":JINXIU_6_0" index="0" speed="11.52" length="3.57" shape="1761.09,-186.78 1757.59,-187.50"/>
    </edge>
    <edge id=":JINXIU_28" function="internal">
        <lane id=":JINXIU_28_0" index="0" speed="11.52" length="26.51" shape="1757.59,-187.50 1754.45,-188.14 1749.65,-192.23 1746.68,-199.02 1745.56,-208.54"/>
    </edge>
    <edge id=":JINXIU_7" function="internal">
        <lane id=":JINXIU_7_0" index="0" speed="6.72" length="9.55" shape="1755.16,-208.72 1755.57,-206.12 1756.70,-204.27 1758.55,-203.15 1761.11,-202.78"/>
        <lane id=":JINXIU_7_1" index="1" speed="7.52" length="12.21" shape="1755.16,-208.72 1755.59,-204.72 1756.73,-201.87 1758.57,-200.15 1761.10,-199.58"/>
    </edge>
    <edge id=":JINXIU_9" function="internal">
        <lane id=":JINXIU_9_0" index="0" speed="13.89" length="40.33" shape="1755.16,-208.72 1755.46,-168.32"/>
        <lane id=":JINXIU_9_1" index="1" speed="13.89" length="40.33" shape="1751.96,-208.66 1752.26,-168.33"/>
        <lane id=":JINXIU_9_2" index="2" speed="13.89" length="40.33" shape="1748.76,-208.60 1749.06,-168.35"/>
    </edge>
    <edge id=":JINXIU_12" function="internal">
        <lane id=":JINXIU_12_0" index="0" speed="11.87" length="9.06" shape="1748.76,-208.60 1748.12,-199.56"/>
        <lane id=":JINXIU_12_1" index="1" speed="11.37" length="7.81" shape="1748.76,-208.60 1748.11,-200.82"/>
    </edge>
    <edge id=":JINXIU_29" function="internal">
        <lane id=":JINXIU_29_0" index="0" speed="11.87" length="23.87" shape="1748.12,-199.56 1747.99,-197.66 1745.21,-189.84 1740.43,-185.15 1733.63,-183.59"/>
    </edge>
    <edge id=":JINXIU_30" function="internal">
        <lane id=":JINXIU_30_0" index="0" speed="11.37" length="22.32" shape="1748.11,-200.82 1747.97,-199.06 1745.18,-192.24 1740.41,-188.15 1733.63,-186.79"/>
    </edge>
    <edge id=":JINXIU_14" function="internal">
        <lane id=":JINXIU_14_0" index="0" speed="6.47" length="9.03" shape="1733.63,-202.79 1736.09,-203.14 1737.83,-204.20 1738.85,-205.96 1739.16,-208.42"/>
    </edge>
    <edge id=":JINXIU_15" function="internal">
        <lane id=":JINXIU_15_0" index="0" speed="13.89" length="27.47" shape="1733.63,-202.79 1761.11,-202.78"/>
        <lane id=":JINXIU_15_1" index="1" speed="13.89" length="27.47" shape="1733.63,-199.59 1761.10,-199.58"/>
        <lane id=":JINXIU_15_2" index="2" speed="13.89" length="27.47" shape="1733.63,-196.39 1761.10,-196.38"/>
        <lane id=":JINXIU_15_3" index="3" speed="13.89" length="27.47" shape="1733.63,-193.19 1761.10,-193.18"/>
        <lane id=":JINXIU_15_4" index="4" speed="13.89" length="27.47" shape="1733.63,-189.99 1761.09,-189.98"/>
    </edge>
    <edge id=":JINXIU_20" function="internal">
        <lane id=":JINXIU_20_0" index="0" speed="11.42" length="3.68" shape="1733.63,-189.99 1737.24,-189.27"/>
    </edge>
    <edge id=":JINXIU_31" function="internal">
        <lane id=":JINXIU_31_0" index="0" speed="11.42" length="26.42" shape="1737.24,-189.27 1740.42,-188.64 1745.25,-184.58 1748.13,-177.82 1749.06,-168.35"/>
    </edge>
    <edge id=":JINXIU_21" function="internal">
        <lane id=":JINXIU_21_0" index="0" speed="6.56" length="9.23" shape="1739.46,-168.38 1739.11,-170.84 1738.02,-172.59 1736.19,-173.64 1733.63,-173.99"/>
        <lane id=":JINXIU_21_1" index="1" speed="7.37" length="11.91" shape="1739.46,-168.38 1739.11,-172.24 1738.02,-174.99 1736.20,-176.64 1733.63,-177.19"/>
    </edge>
    <edge id=":JINXIU_23" function="internal">
        <lane id=":JINXIU_23_0" index="0" speed="13.89" length="40.11" shape="1739.46,-168.38 1739.16,-208.42"/>
        <lane id=":JINXIU_23_1" index="1" speed="13.89" length="40.11" shape="1742.66,-168.37 1742.36,-208.48"/>
        <lane id=":JINXIU_23_2" index="2" speed="13.89" length="40.11" shape="1745.86,-168.36 1745.56,-208.54"/>
    </edge>
    <edge id=":JINXIU_26" function="internal">
        <lane id=":JINXIU_26_0" index="0" speed="11.91" length="7.17" shape="1745.86,-168.36 1746.51,-175.50"/>
        <lane id=":JINXIU_26_1" index="1" speed="11.41" length="6.36" shape="1745.86,-168.36 1746.52,-174.68"/>
    </edge>
    <edge id=":JINXIU_32" function="internal">
        <lane id=":JINXIU_32_0" index="0" speed="11.91" length="25.46" shape="1746.51,-175.50 1746.85,-179.22 1749.72,-186.98 1754.47,-191.63 1761.10,-193.18"/>
    </edge>
    <edge id=":JINXIU_33" function="internal">
        <lane id=":JINXIU_33_0" index="0" speed="11.41" length="23.51" shape="1746.52,-174.68 1746.85,-177.82 1749.71,-184.58 1754.46,-188.63 1761.09,-189.98"/>
    </edge>
    <edge id=":LONGQINJIE_0" function="internal">
        <lane id=":LONGQINJIE_0_0" index="0" speed="6.55" length="9.14" shape="928.60,-169.36 928.24,-171.83 927.17,-173.60 925.39,-174.66 922.91,-175.01"/>
        <lane id=":LONGQINJIE_0_1" index="1" speed="7.36" length="11.83" shape="928.60,-169.36 928.24,-173.23 927.17,-176.00 925.39,-177.66 922.91,-178.21"/>
    </edge>
    <edge id=":LONGQINJIE_2" function="internal">
        <lane id=":LONGQINJIE_2_0" index="0" speed="13.89" length="40.07" shape="928.60,-169.36 928.49,-209.42"/>
        <lane id=":LONGQINJIE_2_1" index="1" speed="13.89" length="40.07" shape="931.80,-169.36 931.69,-209.43"/>
        <lane id=":LONGQINJIE_2_2" index="2" speed="13.89" length="40.07" shape="935.00,-169.37 934.89,-209.44"/>
    </edge>
    <edge id=":LONGQINJIE_5" function="internal">
        <lane id=":LONGQINJIE_5_0" index="0" speed="11.89" length="7.91" shape="935.00,-169.37 935.68,-177.25"/>
        <lane id=":LONGQINJIE_5_1" index="1" speed="11.39" length="6.93" shape="935.00,-169.37 935.68,-176.26"/>
    </edge>
    <edge id=":LONGQINJIE_28" function="internal">
        <lane id=":LONGQINJIE_28_0" index="0" speed="11.89" length="24.78" shape="935.68,-177.25 935.94,-180.23 938.79,-187.99 943.57,-192.64 950.25,-194.17"/>
    </edge>
    <edge id=":LONGQINJIE_29" function="internal">
        <lane id=":LONGQINJIE_29_0" index="0" speed="11.39" length="22.99" shape="935.68,-176.26 935.94,-178.83 938.79,-185.59 943.56,-189.64 950.24,-190.97"/>
    </edge>
    <edge id=":LONGQINJIE_7" function="internal">
        <lane id=":LONGQINJIE_7_0" index="0" speed="6.50" length="9.03" shape="950.20,-174.97 947.74,-174.63 945.99,-173.58 944.94,-171.83 944.60,-169.38"/>
    </edge>
    <edge id=":LONGQINJIE_8" function="internal">
        <lane id=":LONGQINJIE_8_0" index="0" speed="13.89" length="27.31" shape="950.20,-174.97 922.91,-175.01"/>
        <lane id=":LONGQINJIE_8_1" index="1" speed="13.89" length="27.31" shape="950.21,-178.17 922.91,-178.21"/>
        <lane id=":LONGQINJIE_8_2" index="2" speed="13.89" length="27.31" shape="950.22,-181.37 922.91,-181.41"/>
        <lane id=":LONGQINJIE_8_3" index="3" speed="13.89" length="27.31" shape="950.23,-184.57 922.91,-184.61"/>
        <lane id=":LONGQINJIE_8_4" index="4" speed="13.89" length="27.31" shape="950.23,-187.77 922.91,-187.81"/>
    </edge>
    <edge id=":LONGQINJIE_13" function="internal">
        <lane id=":LONGQINJIE_13_0" index="0" speed="11.45" length="3.60" shape="950.23,-187.77 946.71,-188.49"/>
    </edge>
    <edge id=":LONGQINJIE_30" function="internal">
        <lane id=":LONGQINJIE_30_0" index="0" speed="11.45" length="26.38" shape="946.71,-188.49 943.55,-189.14 938.77,-193.21 935.88,-199.98 934.89,-209.44"/>
    </edge>
    <edge id=":LONGQINJIE_14" function="internal">
        <lane id=":LONGQINJIE_14_0" index="0" speed="6.60" length="9.26" shape="944.49,-209.48 944.86,-206.99 945.95,-205.21 947.76,-204.13 950.28,-203.77"/>
        <lane id=":LONGQINJIE_14_1" index="1" speed="7.40" length="11.94" shape="944.49,-209.48 944.86,-205.59 945.95,-202.81 947.76,-201.13 950.27,-200.57"/>
    </edge>
    <edge id=":LONGQINJIE_16" function="internal">
        <lane id=":LONGQINJIE_16_0" index="0" speed="13.89" length="40.09" shape="944.49,-209.48 944.60,-169.38"/>
        <lane id=":LONGQINJIE_16_1" index="1" speed="13.89" length="40.09" shape="941.29,-209.47 941.40,-169.37"/>
        <lane id=":LONGQINJIE_16_2" index="2" speed="13.89" length="40.09" shape="938.09,-209.46 938.20,-169.37"/>
    </edge>
    <edge id=":LONGQINJIE_19" function="internal">
        <lane id=":LONGQINJIE_19_0" index="0" speed="11.89" length="8.16" shape="938.09,-209.46 937.41,-201.33"/>
        <lane id=":LONGQINJIE_19_1" index="1" speed="11.39" length="7.12" shape="938.09,-209.46 937.40,-202.37"/>
    </edge>
    <edge id=":LONGQINJIE_31" function="internal">
        <lane id=":LONGQINJIE_31_0" index="0" speed="11.89" length="24.53" shape="937.41,-201.33 937.18,-198.59 934.34,-190.82 929.59,-186.16 922.91,-184.61"/>
    </edge>
    <edge id=":LONGQINJIE_32" function="internal">
        <lane id=":LONGQINJIE_32_0" index="0" speed="11.39" length="22.80" shape="937.40,-202.37 937.17,-199.99 934.34,-193.22 929.58,-189.16 922.91,-187.81"/>
    </edge>
    <edge id=":LONGQINJIE_21" function="internal">
        <lane id=":LONGQINJIE_21_0" index="0" speed="6.50" length="9.03" shape="922.91,-203.81 925.36,-204.16 927.10,-205.21 928.15,-206.96 928.49,-209.42"/>
    </edge>
    <edge id=":LONGQINJIE_22" function="internal">
        <lane id=":LONGQINJIE_22_0" index="0" speed="13.89" length="27.36" shape="922.91,-203.81 950.28,-203.77"/>
        <lane id=":LONGQINJIE_22_1" index="1" speed="13.89" length="27.36" shape="922.91,-200.61 950.27,-200.57"/>
        <lane id=":LONGQINJIE_22_2" index="2" speed="13.89" length="27.36" shape="922.91,-197.41 950.26,-197.37"/>
        <lane id=":LONGQINJIE_22_3" index="3" speed="13.89" length="27.36" shape="922.91,-194.21 950.25,-194.17"/>
        <lane id=":LONGQINJIE_22_4" index="4" speed="13.89" length="27.36" shape="922.91,-191.01 950.24,-190.97"/>
    </edge>
    <edge id=":LONGQINJIE_27" function="internal">
        <lane id=":LONGQINJIE_27_0" index="0" speed="11.42" length="3.64" shape="922.91,-191.01 926.48,-190.29"/>
    </edge>
    <edge id=":LONGQINJIE_33" function="internal">
        <lane id=":LONGQINJIE_33_0" index="0" speed="11.42" length="26.30" shape="926.48,-190.29 929.58,-189.66 934.36,-185.60 937.23,-178.84 938.20,-169.37"/>
    </edge>
    <edge id=":RONGHUAWENHUAYUAN_0" function="internal">
        <lane id=":RONGHUAWENHUAYUAN_0_0" index="0" speed="7.37" length="11.84" shape="447.99,-168.75 447.61,-172.63 446.54,-175.41 444.77,-177.08 442.31,-177.63"/>
    </edge>
    <edge id=":RONGHUAWENHUAYUAN_1" function="internal">
        <lane id=":RONGHUAWENHUAYUAN_1_0" index="0" speed="13.89" length="40.15" shape="447.99,-168.75 447.92,-208.88"/>
        <lane id=":RONGHUAWENHUAYUAN_1_1" index="1" speed="13.89" length="40.15" shape="451.19,-168.76 451.12,-208.87"/>
        <lane id=":RONGHUAWENHUAYUAN_1_2" index="2" speed="13.89" length="40.15" shape="451.19,-168.76 454.32,-208.86"/>
    </edge>
    <edge id=":RONGHUAWENHUAYUAN_4" function="internal">
        <lane id=":RONGHUAWENHUAYUAN_4_0" index="0" speed="12.30" length="17.72" shape="451.19,-168.76 452.28,-179.64 455.02,-185.85"/>
        <lane id=":RONGHUAWENHUAYUAN_4_1" index="1" speed="11.39" length="7.29" shape="454.39,-168.78 455.08,-176.03"/>
    </edge>
    <edge id=":RONGHUAWENHUAYUAN_27" function="internal">
        <lane id=":RONGHUAWENHUAYUAN_27_0" index="0" speed="12.30" length="17.35" shape="455.02,-185.85 455.71,-187.41 461.46,-192.08 469.55,-193.64"/>
    </edge>
    <edge id=":RONGHUAWENHUAYUAN_28" function="internal">
        <lane id=":RONGHUAWENHUAYUAN_28_0" index="0" speed="11.39" length="22.63" shape="455.08,-176.03 455.29,-178.25 458.12,-185.02 462.87,-189.08 469.55,-190.44"/>
    </edge>
    <edge id=":RONGHUAWENHUAYUAN_6" function="internal">
        <lane id=":RONGHUAWENHUAYUAN_6_0" index="0" speed="6.50" length="9.03" shape="469.56,-174.44 467.11,-174.09 465.37,-173.04 464.32,-171.28 463.99,-168.83"/>
    </edge>
    <edge id=":RONGHUAWENHUAYUAN_7" function="internal">
        <lane id=":RONGHUAWENHUAYUAN_7_0" index="0" speed="13.89" length="27.50" shape="469.56,-174.44 461.44,-174.94 455.93,-176.03 450.42,-177.13 442.31,-177.63"/>
        <lane id=":RONGHUAWENHUAYUAN_7_1" index="1" speed="13.89" length="27.50" shape="469.56,-177.64 461.44,-178.14 455.93,-179.23 450.42,-180.33 442.31,-180.83"/>
        <lane id=":RONGHUAWENHUAYUAN_7_2" index="2" speed="13.89" length="27.50" shape="469.56,-180.84 461.44,-181.34 455.93,-182.43 450.42,-183.53 442.31,-184.03"/>
        <lane id=":RONGHUAWENHUAYUAN_7_3" index="3" speed="13.89" length="27.50" shape="469.55,-184.04 461.44,-184.54 455.93,-185.63 450.42,-186.73 442.31,-187.23"/>
    </edge>
    <edge id=":RONGHUAWENHUAYUAN_11" function="internal">
        <lane id=":RONGHUAWENHUAYUAN_11_0" index="0" speed="12.30" length="11.84" shape="469.55,-184.04 461.47,-185.59 458.66,-187.86"/>
        <lane id=":RONGHUAWENHUAYUAN_11_1" index="1" speed="11.39" length="3.63" shape="469.55,-187.24 466.00,-187.96"/>
    </edge>
    <edge id=":RONGHUAWENHUAYUAN_29" function="internal">
        <lane id=":RONGHUAWENHUAYUAN_29_0" index="0" speed="12.30" length="23.22" shape="458.66,-187.86 455.70,-190.24 452.26,-198.00 451.12,-208.87"/>
    </edge>
    <edge id=":RONGHUAWENHUAYUAN_30" function="internal">
        <lane id=":RONGHUAWENHUAYUAN_30_0" index="0" speed="11.39" length="26.29" shape="466.00,-187.96 462.87,-188.59 458.11,-192.64 455.26,-199.40 454.32,-208.86"/>
    </edge>
    <edge id=":RONGHUAWENHUAYUAN_13" function="internal">
        <lane id=":RONGHUAWENHUAYUAN_13_0" index="0" speed="6.51" length="9.05" shape="463.92,-208.84 464.27,-206.39 465.32,-204.64 467.08,-203.59 469.54,-203.24"/>
        <lane id=":RONGHUAWENHUAYUAN_13_1" index="1" speed="8.00" length="14.22" shape="460.72,-208.85 461.27,-204.99 462.92,-202.24 465.68,-200.59 469.54,-200.04"/>
        <lane id=":RONGHUAWENHUAYUAN_13_2" index="2" speed="8.67" length="16.88" shape="460.72,-208.85 461.27,-203.59 462.92,-199.84 465.68,-197.59 469.54,-196.84"/>
    </edge>
    <edge id=":RONGHUAWENHUAYUAN_16" function="internal">
        <lane id=":RONGHUAWENHUAYUAN_16_0" index="0" speed="13.89" length="40.13" shape="460.72,-208.85 463.99,-168.83"/>
        <lane id=":RONGHUAWENHUAYUAN_16_1" index="1" speed="13.89" length="40.13" shape="457.52,-208.86 460.79,-168.81"/>
        <lane id=":RONGHUAWENHUAYUAN_16_2" index="2" speed="13.89" length="40.13" shape="457.52,-208.86 457.59,-168.80"/>
    </edge>
    <edge id=":RONGHUAWENHUAYUAN_19" function="internal">
        <lane id=":RONGHUAWENHUAYUAN_19_0" index="0" speed="11.40" length="10.85" shape="457.52,-208.86 456.56,-199.39 456.03,-198.16"/>
    </edge>
    <edge id=":RONGHUAWENHUAYUAN_31" function="internal">
        <lane id=":RONGHUAWENHUAYUAN_31_0" index="0" speed="11.40" length="19.02" shape="456.03,-198.16 453.70,-192.64 448.95,-188.58 442.31,-187.23"/>
    </edge>
    <edge id=":RONGHUAWENHUAYUAN_20" function="internal">
        <lane id=":RONGHUAWENHUAYUAN_20_0" index="0" speed="6.52" length="9.07" shape="442.31,-203.23 444.76,-203.59 446.52,-204.64 447.57,-206.41 447.92,-208.88"/>
    </edge>
    <edge id=":RONGHUAWENHUAYUAN_21" function="internal">
        <lane id=":RONGHUAWENHUAYUAN_21_0" index="0" speed="13.89" length="27.23" shape="442.31,-203.23 469.54,-203.24"/>
        <lane id=":RONGHUAWENHUAYUAN_21_1" index="1" speed="13.89" length="27.23" shape="442.31,-200.03 469.54,-200.04"/>
        <lane id=":RONGHUAWENHUAYUAN_21_2" index="2" speed="13.89" length="27.23" shape="442.31,-196.83 469.54,-196.84"/>
        <lane id=":RONGHUAWENHUAYUAN_21_3" index="3" speed="13.89" length="27.23" shape="442.31,-193.63 469.55,-193.64"/>
        <lane id=":RONGHUAWENHUAYUAN_21_4" index="4" speed="13.89" length="27.23" shape="442.31,-190.43 469.55,-190.44"/>
    </edge>
    <edge id=":RONGHUAWENHUAYUAN_26" function="internal">
        <lane id=":RONGHUAWENHUAYUAN_26_0" index="0" speed="11.43" length="5.06" shape="442.31,-190.43 447.27,-189.42"/>
    </edge>
    <edge id=":RONGHUAWENHUAYUAN_32" function="internal">
        <lane id=":RONGHUAWENHUAYUAN_32_0" index="0" speed="11.43" length="24.84" shape="447.27,-189.42 448.95,-189.08 453.71,-185.02 456.59,-178.26 457.59,-168.80"/>
    </edge>
    <edge id=":RONGJING_0" function="internal">
        <lane id=":RONGJING_0_0" index="0" speed="6.63" length="9.35" shape="1286.05,-174.07 1283.48,-173.71 1281.65,-172.64 1280.54,-170.85 1280.15,-168.35"/>
    </edge>
    <edge id=":RONGJING_1" function="internal">
        <lane id=":RONGJING_1_0" index="0" speed="13.89" length="27.44" shape="1286.05,-174.07 1258.59,-174.11"/>
        <lane id=":RONGJING_1_1" index="1" speed="13.89" length="27.44" shape="1286.05,-177.27 1258.60,-177.31"/>
        <lane id=":RONGJING_1_2" index="2" speed="13.89" length="27.44" shape="1286.05,-180.47 1258.61,-180.51"/>
        <lane id=":RONGJING_1_3" index="3" speed="13.89" length="27.44" shape="1286.05,-183.67 1258.61,-183.71"/>
        <lane id=":RONGJING_1_4" index="4" speed="13.89" length="27.44" shape="1286.05,-186.87 1258.62,-186.91"/>
    </edge>
    <edge id=":RONGJING_6" function="internal">
        <lane id=":RONGJING_6_0" index="0" speed="11.38" length="3.64" shape="1286.05,-186.87 1282.47,-187.59"/>
    </edge>
    <edge id=":RONGJING_28" function="internal">
        <lane id=":RONGJING_28_0" index="0" speed="11.38" length="26.33" shape="1282.47,-187.59 1279.35,-188.23 1274.58,-192.29 1271.76,-199.07 1270.88,-208.56"/>
    </edge>
    <edge id=":RONGJING_7" function="internal">
        <lane id=":RONGJING_7_0" index="0" speed="6.49" length="9.03" shape="1280.48,-208.48 1280.81,-206.03 1281.85,-204.27 1283.59,-203.22 1286.05,-202.87"/>
        <lane id=":RONGJING_7_1" index="1" speed="7.31" length="11.74" shape="1280.48,-208.48 1280.80,-204.63 1281.83,-201.87 1283.58,-200.22 1286.05,-199.67"/>
    </edge>
    <edge id=":RONGJING_9" function="internal">
        <lane id=":RONGJING_9_0" index="0" speed="13.89" length="40.13" shape="1280.48,-208.48 1280.15,-168.35"/>
        <lane id=":RONGJING_9_1" index="1" speed="13.89" length="40.13" shape="1277.28,-208.51 1276.95,-168.37"/>
        <lane id=":RONGJING_9_2" index="2" speed="13.89" length="40.13" shape="1274.08,-208.53 1273.75,-168.40"/>
    </edge>
    <edge id=":RONGJING_12" function="internal">
        <lane id=":RONGJING_12_0" index="0" speed="11.94" length="8.08" shape="1274.08,-208.53 1273.31,-200.49"/>
        <lane id=":RONGJING_12_1" index="1" speed="11.45" length="7.05" shape="1274.08,-208.53 1273.32,-201.52"/>
    </edge>
    <edge id=":RONGJING_29" function="internal">
        <lane id=":RONGJING_29_0" index="0" speed="11.94" length="24.69" shape="1273.31,-200.49 1273.04,-197.66 1270.11,-189.89 1265.31,-185.24 1258.61,-183.71"/>
    </edge>
    <edge id=":RONGJING_30" function="internal">
        <lane id=":RONGJING_30_0" index="0" speed="11.45" length="22.96" shape="1273.32,-201.52 1273.05,-199.06 1270.13,-192.29 1265.32,-188.24 1258.62,-186.91"/>
    </edge>
    <edge id=":RONGJING_14" function="internal">
        <lane id=":RONGJING_14_0" index="0" speed="6.60" length="9.27" shape="1258.67,-202.91 1261.19,-203.26 1263.00,-204.32 1264.10,-206.11 1264.48,-208.61"/>
    </edge>
    <edge id=":RONGJING_15" function="internal">
        <lane id=":RONGJING_15_0" index="0" speed="13.89" length="27.40" shape="1258.67,-202.91 1286.05,-202.87"/>
        <lane id=":RONGJING_15_1" index="1" speed="13.89" length="27.40" shape="1258.66,-199.71 1286.05,-199.67"/>
        <lane id=":RONGJING_15_2" index="2" speed="13.89" length="27.40" shape="1258.65,-196.51 1286.05,-196.47"/>
        <lane id=":RONGJING_15_3" index="3" speed="13.89" length="27.40" shape="1258.64,-193.31 1286.05,-193.27"/>
        <lane id=":RONGJING_15_4" index="4" speed="13.89" length="27.40" shape="1258.63,-190.11 1286.05,-190.07"/>
    </edge>
    <edge id=":RONGJING_20" function="internal">
        <lane id=":RONGJING_20_0" index="0" speed="11.39" length="3.60" shape="1258.63,-190.11 1262.15,-189.38"/>
    </edge>
    <edge id=":RONGJING_31" function="internal">
        <lane id=":RONGJING_31_0" index="0" speed="11.39" length="26.34" shape="1262.15,-189.38 1265.31,-188.73 1270.06,-184.66 1272.87,-177.88 1273.75,-168.40"/>
    </edge>
    <edge id=":RONGJING_21" function="internal">
        <lane id=":RONGJING_21_0" index="0" speed="6.49" length="9.03" shape="1264.15,-168.48 1263.82,-170.94 1262.78,-172.69 1261.04,-173.75 1258.59,-174.11"/>
        <lane id=":RONGJING_21_1" index="1" speed="7.31" length="11.74" shape="1264.15,-168.48 1263.83,-172.34 1262.80,-175.09 1261.06,-176.75 1258.60,-177.31"/>
    </edge>
    <edge id=":RONGJING_23" function="internal">
        <lane id=":RONGJING_23_0" index="0" speed="13.89" length="40.13" shape="1264.15,-168.48 1264.48,-208.61"/>
        <lane id=":RONGJING_23_1" index="1" speed="13.89" length="40.13" shape="1267.35,-168.46 1267.68,-208.58"/>
        <lane id=":RONGJING_23_2" index="2" speed="13.89" length="40.13" shape="1270.55,-168.43 1270.88,-208.56"/>
    </edge>
    <edge id=":RONGJING_26" function="internal">
        <lane id=":RONGJING_26_0" index="0" speed="11.96" length="8.01" shape="1270.55,-168.43 1271.32,-176.40"/>
        <lane id=":RONGJING_26_1" index="1" speed="11.46" length="6.99" shape="1270.55,-168.43 1271.31,-175.38"/>
    </edge>
    <edge id=":RONGJING_32" function="internal">
        <lane id=":RONGJING_32_0" index="0" speed="11.96" length="24.78" shape="1271.32,-176.40 1271.60,-179.30 1274.53,-187.06 1279.34,-191.72 1286.05,-193.27"/>
    </edge>
    <edge id=":RONGJING_33" function="internal">
        <lane id=":RONGJING_33_0" index="0" speed="11.46" length="23.05" shape="1271.31,-175.38 1271.59,-177.90 1274.52,-184.66 1279.33,-188.72 1286.05,-190.07"/>
    </edge>
    <edge id=":RUICHENG_0" function="internal">
        <lane id=":RUICHENG_0_0" index="0" speed="6.60" length="9.27" shape="1604.58,-173.99 1602.06,-173.63 1600.25,-172.56 1599.16,-170.77 1598.78,-168.27"/>
    </edge>
    <edge id=":RUICHENG_1" function="internal">
        <lane id=":RUICHENG_1_0" index="0" speed="13.89" length="27.37" shape="1604.58,-173.99 1577.21,-174.00"/>
        <lane id=":RUICHENG_1_1" index="1" speed="13.89" length="27.37" shape="1604.58,-177.19 1577.21,-177.20"/>
        <lane id=":RUICHENG_1_2" index="2" speed="13.89" length="27.37" shape="1604.58,-180.39 1577.21,-180.40"/>