<additional>
 <entryExitDetector id="e3_det" freq="120" file="output/data_e3.xml">
     <detEntry lane="E27_0" pos="50"/>
     <detEntry lane="E27_1" pos="50"/>
     <detEntry lane="E27_2" pos="50"/>
     <detEntry lane="E27_3" pos="50"/>
	 <detEntry lane="E27_4" pos="50"/>
	 <detEntry lane="-E28_0" pos="50"/>
     <detEntry lane="-E28_1" pos="50"/>
     <detEntry lane="-E28_2" pos="50"/>
     <detEntry lane="-E28_3" pos="50"/>
	 <detEntry lane="-E28_4" pos="50"/>
     <detEntry lane="-E24_0" pos="50"/>
     <detEntry lane="-E24_1" pos="50"/>
     <detEntry lane="-E24_2" pos="50"/>     
     <detEntry lane="-E26_0" pos="50"/>
     <detEntry lane="-E26_1" pos="50"/>
     <detEntry lane="-E26_2" pos="50"/>
     <detEntry lane="-E8_0" pos="50"/>
     <detEntry lane="-E8_1" pos="50"/>
     <detEntry lane="-E8_2" pos="50"/>     
     <detEntry lane="-E9_0" pos="50"/>
     <detEntry lane="-E9_1" pos="50"/>
     <detEntry lane="-E9_2" pos="50"/>
     <detEntry lane="-E10_0" pos="50"/>
     <detEntry lane="-E10_1" pos="50"/>
     <detEntry lane="-E10_2" pos="50"/>     
     <detEntry lane="-E11_0" pos="50"/>
     <detEntry lane="-E11_1" pos="50"/>
     <detEntry lane="-E11_2" pos="50"/>
     <detEntry lane="-E12_0" pos="50"/>
     <detEntry lane="-E12_1" pos="50"/>
     <detEntry lane="-E12_2" pos="50"/>     
     <detEntry lane="-E13_0" pos="50"/>
     <detEntry lane="-E13_1" pos="50"/>
     <detEntry lane="-E13_2" pos="50"/>
     <detEntry lane="-E14_0" pos="50"/>
     <detEntry lane="-E14_1" pos="50"/>
     <detEntry lane="-E14_2" pos="50"/>     
     <detEntry lane="-E15_0" pos="50"/>
     <detEntry lane="-E15_1" pos="50"/>
     <detEntry lane="-E15_2" pos="50"/>
     <detEntry lane="-E16_0" pos="50"/>
     <detEntry lane="-E16_1" pos="50"/>
     <detEntry lane="-E16_2" pos="50"/>     
     <detEntry lane="-E17_0" pos="50"/>
     <detEntry lane="-E17_1" pos="50"/>
     <detEntry lane="-E17_2" pos="50"/>
     <detEntry lane="-E18_0" pos="50"/>
     <detEntry lane="-E18_1" pos="50"/>
     <detEntry lane="-E18_2" pos="50"/>     
     <detEntry lane="-E19_0" pos="50"/>
     <detEntry lane="-E19_1" pos="50"/>
     <detEntry lane="-E19_2" pos="50"/>
     <detEntry lane="-E20_0" pos="50"/>
     <detEntry lane="-E20_1" pos="50"/>
     <detEntry lane="-E20_2" pos="50"/>     
     <detEntry lane="-E21_0" pos="50"/>
     <detEntry lane="-E21_1" pos="50"/>
     <detEntry lane="-E21_2" pos="50"/>
     <detEntry lane="-E22_0" pos="50"/>
     <detEntry lane="-E22_1" pos="50"/>
     <detEntry lane="-E22_2" pos="50"/>     
     <detEntry lane="-E23_0" pos="50"/>
     <detEntry lane="-E23_1" pos="50"/>
     <detEntry lane="-E23_2" pos="50"/>

     <detExit lane="-E27_0" pos="50"/>
     <detExit lane="-E27_1" pos="50"/>
     <detExit lane="-E27_2" pos="50"/>
     <detExit lane="-E27_3" pos="50"/>
	 <detExit lane="E28_0" pos="50"/>
     <detExit lane="E28_1" pos="50"/>
     <detExit lane="E28_2" pos="50"/>
     <detExit lane="E28_3" pos="50"/>
	 <detExit lane="E28_4" pos="50"/>
     <detExit lane="E24_0" pos="50"/>
     <detExit lane="E24_1" pos="50"/>
     <detExit lane="E24_2" pos="50"/>     
     <detExit lane="E26_0" pos="50"/>
     <detExit lane="E26_1" pos="50"/>
     <detExit lane="E26_2" pos="50"/>
     <detExit lane="E8_0" pos="50"/>
     <detExit lane="E8_1" pos="50"/>
     <detExit lane="E8_2" pos="50"/>     
     <detExit lane="E9_0" pos="50"/>
     <detExit lane="E9_1" pos="50"/>
     <detExit lane="E9_2" pos="50"/>
     <detExit lane="E10_0" pos="50"/>
     <detExit lane="E10_1" pos="50"/>
     <detExit lane="E10_2" pos="50"/>     
     <detExit lane="E11_0" pos="50"/>
     <detExit lane="E11_1" pos="50"/>
     <detExit lane="E11_2" pos="50"/>
     <detExit lane="E12_0" pos="50"/>
     <detExit lane="E12_1" pos="50"/>
     <detExit lane="E12_2" pos="50"/>     
     <detExit lane="E13_0" pos="50"/>
     <detExit lane="E13_1" pos="50"/>
     <detExit lane="E13_2" pos="50"/>
     <detExit lane="E14_0" pos="50"/>
     <detExit lane="E14_1" pos="50"/>
     <detExit lane="E14_2" pos="50"/>     
     <detExit lane="E15_0" pos="50"/>
     <detExit lane="E15_1" pos="50"/>
     <detExit lane="E15_2" pos="50"/>
     <detExit lane="E16_0" pos="50"/>
     <detExit lane="E16_1" pos="50"/>
     <detExit lane="E16_2" pos="50"/>     
     <detExit lane="E17_0" pos="50"/>
     <detExit lane="E17_1" pos="50"/>
     <detExit lane="E17_2" pos="50"/>
     <detExit lane="E18_0" pos="50"/>
     <detExit lane="E18_1" pos="50"/>
     <detExit lane="E18_2" pos="50"/>     
     <detExit lane="E19_0" pos="50"/>
     <detExit lane="E19_1" pos="50"/>
     <detExit lane="E19_2" pos="50"/>
     <detExit lane="E20_0" pos="50"/>
     <detExit lane="E20_1" pos="50"/>
     <detExit lane="E20_2" pos="50"/>     
     <detExit lane="E21_0" pos="50"/>
     <detExit lane="E21_1" pos="50"/>
     <detExit lane="E21_2" pos="50"/>
     <detExit lane="E22_0" pos="50"/>
     <detExit lane="E22_1" pos="50"/>
     <detExit lane="E22_2" pos="50"/>     
     <detExit lane="E23_0" pos="50"/>
     <detExit lane="E23_1" pos="50"/>
     <detExit lane="E23_2" pos="50"/>
  </entryExitDetector>

  <entryExitDetector id="e3_1_det" freq="120" file="output/data_e3.xml">
     <detEntry lane="E27_0" pos="50"/>
     <detEntry lane="E27_1" pos="50"/>
     <detEntry lane="E27_2" pos="50"/>
     <detEntry lane="E27_3" pos="50"/>
	 <detEntry lane="E27_4" pos="50"/>
	 <detEntry lane="-E0_0" pos="50"/>
     <detEntry lane="-E0_1" pos="50"/>
     <detEntry lane="-E0_2" pos="50"/>
     <detEntry lane="-E0_3" pos="50"/>
	 <detEntry lane="-E0_4" pos="50"/>
     <detEntry lane="-E24_0" pos="50"/>
     <detEntry lane="-E24_1" pos="50"/>
     <detEntry lane="-E24_2" pos="50"/>     
     <detEntry lane="-E26_0" pos="50"/>
     <detEntry lane="-E26_1" pos="50"/>
     <detEntry lane="-E26_2" pos="50"/>

     <detExit lane="-E27_0" pos="50"/>
     <detExit lane="-E27_1" pos="50"/>
     <detExit lane="-E27_2" pos="50"/>
     <detExit lane="-E27_3" pos="50"/>
	 <detExit lane="E0_0" pos="50"/>
     <detExit lane="E0_1" pos="50"/>
     <detExit lane="E0_2" pos="50"/>
     <detExit lane="E0_3" pos="50"/>
	 <detExit lane="E0_4" pos="50"/>
     <detExit lane="E24_0" pos="50"/>
     <detExit lane="E24_1" pos="50"/>
     <detExit lane="E24_2" pos="50"/>     
     <detExit lane="E26_0" pos="50"/>
     <detExit lane="E26_1" pos="50"/>
     <detExit lane="E26_2" pos="50"/>
  </entryExitDetector>

  <entryExitDetector id="e3_2_det" freq="120" file="output/data_e3.xml">
     <detEntry lane="E0_0" pos="50"/>
     <detEntry lane="E0_1" pos="50"/>
     <detEntry lane="E0_2" pos="50"/>
     <detEntry lane="E0_3" pos="50"/>
	 <detEntry lane="E0_4" pos="50"/>
	 <detEntry lane="-E1_0" pos="50"/>
     <detEntry lane="-E1_1" pos="50"/>
     <detEntry lane="-E1_2" pos="50"/>
     <detEntry lane="-E1_3" pos="50"/>
	 <detEntry lane="-E1_4" pos="50"/>
     <detEntry lane="-E8_0" pos="50"/>
     <detEntry lane="-E8_1" pos="50"/>
     <detEntry lane="-E8_2" pos="50"/>     
     <detEntry lane="-E9_0" pos="50"/>
     <detEntry lane="-E9_1" pos="50"/>
     <detEntry lane="-E9_2" pos="50"/>

     <detExit lane="-E0_0" pos="50"/>
     <detExit lane="-E0_1" pos="50"/>
     <detExit lane="-E0_2" pos="50"/>
     <detExit lane="-E0_3" pos="50"/>
	 <detExit lane="-E0_4" pos="50"/>
	 <detExit lane="E1_0" pos="50"/>
     <detExit lane="E1_1" pos="50"/>
     <detExit lane="E1_2" pos="50"/>
     <detExit lane="E1_3" pos="50"/>
	 <detExit lane="E1_4" pos="50"/>
     <detExit lane="E8_0" pos="50"/>
     <detExit lane="E8_1" pos="50"/>
     <detExit lane="E8_2" pos="50"/>     
     <detExit lane="E9_0" pos="50"/>
     <detExit lane="E9_1" pos="50"/>
     <detExit lane="E9_2" pos="50"/>
  </entryExitDetector>

  <entryExitDetector id="e3_3_det" freq="120" file="output/data_e3.xml">
     <detEntry lane="E1_0" pos="50"/>
     <detEntry lane="E1_1" pos="50"/>
     <detEntry lane="E1_2" pos="50"/>
     <detEntry lane="E1_3" pos="50"/>
	 <detEntry lane="E1_4" pos="50"/>
	 <detEntry lane="-E2_0" pos="50"/>
     <detEntry lane="-E2_1" pos="50"/>
     <detEntry lane="-E2_2" pos="50"/>
     <detEntry lane="-E2_3" pos="50"/>
	 <detEntry lane="-E2_4" pos="50"/>
     <detEntry lane="-E10_0" pos="50"/>
     <detEntry lane="-E10_1" pos="50"/>
     <detEntry lane="-E10_2" pos="50"/>     
     <detEntry lane="-E11_0" pos="50"/>
     <detEntry lane="-E11_1" pos="50"/>
     <detEntry lane="-E11_2" pos="50"/>

     <detExit lane="-E1_0" pos="50"/>
     <detExit lane="-E1_1" pos="50"/>
     <detExit lane="-E1_2" pos="50"/>
     <detExit lane="-E1_3" pos="50"/>
	 <detExit lane="-E1_4" pos="50"/>
	 <detExit lane="E2_0" pos="50"/>
     <detExit lane="E2_1" pos="50"/>
     <detExit lane="E2_2" pos="50"/>
     <detExit lane="E2_3" pos="50"/>
	 <detExit lane="E2_4" pos="50"/>
     <detExit lane="E10_0" pos="50"/>
     <detExit lane="E10_1" pos="50"/>
     <detExit lane="E10_2" pos="50"/>     
     <detExit lane="E11_0" pos="50"/>
     <detExit lane="E11_1" pos="50"/>
     <detExit lane="E11_2" pos="50"/>
  </entryExitDetector>
  
  <entryExitDetector id="e3_4_det" freq="120" file="output/data_e3.xml">
     <detEntry lane="E2_0" pos="50"/>
     <detEntry lane="E2_1" pos="50"/>
     <detEntry lane="E2_2" pos="50"/>
     <detEntry lane="E2_3" pos="50"/>
	 <detEntry lane="E2_4" pos="50"/>
	 <detEntry lane="-E3_0" pos="50"/>
     <detEntry lane="-E3_1" pos="50"/>
     <detEntry lane="-E3_2" pos="50"/>
     <detEntry lane="-E3_3" pos="50"/>
	 <detEntry lane="-E3_4" pos="50"/>
     <detEntry lane="-E12_0" pos="50"/>
     <detEntry lane="-E12_1" pos="50"/>
     <detEntry lane="-E12_2" pos="50"/>     
     <detEntry lane="-E13_0" pos="50"/>
     <detEntry lane="-E13_1" pos="50"/>
     <detEntry lane="-E13_2" pos="50"/>

     <detExit lane="-E2_0" pos="50"/>
     <detExit lane="-E2_1" pos="50"/>
     <detExit lane="-E2_2" pos="50"/>
     <detExit lane="-E2_3" pos="50"/>
	 <detExit lane="-E2_4" pos="50"/>
	 <detExit lane="E3_0" pos="50"/>
     <detExit lane="E3_1" pos="50"/>
     <detExit lane="E3_2" pos="50"/>
     <detExit lane="E3_3" pos="50"/>
	 <detExit lane="E3_4" pos="50"/>
     <detExit lane="E12_0" pos="50"/>
     <detExit lane="E12_1" pos="50"/>
     <detExit lane="E12_2" pos="50"/>     
     <detExit lane="E13_0" pos="50"/>
     <detExit lane="E13_1" pos="50"/>
     <detExit lane="E13_2" pos="50"/>
  </entryExitDetector>

  <entryExitDetector id="e3_5_det" freq="120" file="output/data_e3.xml">
     <detEntry lane="E3_0" pos="50"/>
     <detEntry lane="E3_1" pos="50"/>
     <detEntry lane="E3_2" pos="50"/>
     <detEntry lane="E3_3" pos="50"/>
	 <detEntry lane="E3_4" pos="50"/>
	 <detEntry lane="-E4_0" pos="50"/>
     <detEntry lane="-E4_1" pos="50"/>
     <detEntry lane="-E4_2" pos="50"/>
     <detEntry lane="-E4_3" pos="50"/>
	 <detEntry lane="-E4_4" pos="50"/>
     <detEntry lane="-E14_0" pos="50"/>
     <detEntry lane="-E14_1" pos="50"/>
     <detEntry lane="-E14_2" pos="50"/>     
     <detEntry lane="-E15_0" pos="50"/>
     <detEntry lane="-E15_1" pos="50"/>
     <detEntry lane="-E15_2" pos="50"/>

     <detExit lane="-E3_0" pos="50"/>
     <detExit lane="-E3_1" pos="50"/>
     <detExit lane="-E3_2" pos="50"/>
     <detExit lane="-E3_3" pos="50"/>
	 <detExit lane="-E3_4" pos="50"/>
	 <detExit lane="E4_0" pos="50"/>
     <detExit lane="E4_1" pos="50"/>
     <detExit lane="E4_2" pos="50"/>
     <detExit lane="E4_3" pos="50"/>
	 <detExit lane="E4_4" pos="50"/>
     <detExit lane="E14_0" pos="50"/>
     <detExit lane="E14_1" pos="50"/>
     <detExit lane="E14_2" pos="50"/>     
     <detExit lane="E15_0" pos="50"/>
     <detExit lane="E15_1" pos="50"/>
     <detExit lane="E15_2" pos="50"/>
  </entryExitDetector>

  <entryExitDetector id="e3_6_det" freq="120" file="output/data_e3.xml">
     <detEntry lane="E4_0" pos="50"/>
     <detEntry lane="E4_1" pos="50"/>
     <detEntry lane="E4_2" pos="50"/>
     <detEntry lane="E4_3" pos="50"/>
	 <detEntry lane="E4_4" pos="50"/>
	 <detEntry lane="-E5_0" pos="50"/>
     <detEntry lane="-E5_1" pos="50"/>
     <detEntry lane="-E5_2" pos="50"/>
     <detEntry lane="-E5_3" pos="50"/>
	 <detEntry lane="-E5_4" pos="50"/>
     <detEntry lane="-E16_0" pos="50"/>
     <detEntry lane="-E16_1" pos="50"/>
     <detEntry lane="-E16_2" pos="50"/>     
     <detEntry lane="-E17_0" pos="50"/>
     <detEntry lane="-E17_1" pos="50"/>
     <detEntry lane="-E17_2" pos="50"/>

     <detExit lane="-E4_0" pos="50"/>
     <detExit lane="-E4_1" pos="50"/>
     <detExit lane="-E4_2" pos="50"/>
     <detExit lane="-E4_3" pos="50"/>
	 <detExit lane="-E4_4" pos="50"/>
	 <detExit lane="E5_0" pos="50"/>
     <detExit lane="E5_1" pos="50"/>
     <detExit lane="E5_2" pos="50"/>
     <detExit lane="E5_3" pos="50"/>
	 <detExit lane="E5_4" pos="50"/>
     <detExit lane="E16_0" pos="50"/>
     <detExit lane="E16_1" pos="50"/>
     <detExit lane="E16_2" pos="50"/>     
     <detExit lane="E17_0" pos="50"/>
     <detExit lane="E17_1" pos="50"/>
     <detExit lane="E17_2" pos="50"/>
  </entryExitDetector>

  <entryExitDetector id="e3_7_det" freq="120" file="output/data_e3.xml">
     <detEntry lane="E5_0" pos="50"/>
     <detEntry lane="E5_1" pos="50"/>
     <detEntry lane="E5_2" pos="50"/>
     <detEntry lane="E5_3" pos="50"/>
	 <detEntry lane="E5_4" pos="50"/>
	 <detEntry lane="-E6_0" pos="50"/>
     <detEntry lane="-E6_1" pos="50"/>
     <detEntry lane="-E6_2" pos="50"/>
     <detEntry lane="-E6_3" pos="50"/>
	 <detEntry lane="-E6_4" pos="50"/>
     <detEntry lane="-E18_0" pos="50"/>
     <detEntry lane="-E18_1" pos="50"/>
     <detEntry lane="-E18_2" pos="50"/>     
     <detEntry lane="-E19_0" pos="50"/>
     <detEntry lane="-E19_1" pos="50"/>
     <detEntry lane="-E19_2" pos="50"/>

     <detExit lane="-E5_0" pos="50"/>
     <detExit lane="-E5_1" pos="50"/>
     <detExit lane="-E5_2" pos="50"/>
     <detExit lane="-E5_3" pos="50"/>
	 <detExit lane="-E5_4" pos="50"/>
	 <detExit lane="E6_0" pos="50"/>
     <detExit lane="E6_1" pos="50"/>
     <detExit lane="E6_2" pos="50"/>
     <detExit lane="E6_3" pos="50"/>
	 <detExit lane="E6_4" pos="50"/>
     <detExit lane="E18_0" pos="50"/>
     <detExit lane="E18_1" pos="50"/>
     <detExit lane="E18_2" pos="50"/>     
     <detExit lane="E19_0" pos="50"/>
     <detExit lane="E19_1" pos="50"/>
     <detExit lane="E19_2" pos="50"/>
  </entryExitDetector>

  <entryExitDetector id="e3_8_det" freq="120" file="output/data_e3.xml">
     <detEntry lane="E6_0" pos="50"/>
     <detEntry lane="E6_1" pos="50"/>
     <detEntry lane="E6_2" pos="50"/>
     <detEntry lane="E6_3" pos="50"/>
	 <detEntry lane="E6_4" pos="50"/>
	 <detEntry lane="-E7_0" pos="50"/>
     <detEntry lane="-E7_1" pos="50"/>
     <detEntry lane="-E7_2" pos="50"/>
     <detEntry lane="-E7_3" pos="50"/>
	 <detEntry lane="-E7_4" pos="50"/>
     <detEntry lane="-E20_0" pos="50"/>
     <detEntry lane="-E20_1" pos="50"/>
     <detEntry lane="-E20_2" pos="50"/>     
     <detEntry lane="-E21_0" pos="50"/>
     <detEntry lane="-E21_1" pos="50"/>
     <detEntry lane="-E21_2" pos="50"/>

     <detExit lane="-E6_0" pos="50"/>
     <detExit lane="-E6_1" pos="50"/>
     <detExit lane="-E6_2" pos="50"/>
     <detExit lane="-E6_3" pos="50"/>
	 <detExit lane="-E6_4" pos="50"/>
	 <detExit lane="E7_0" pos="50"/>
     <detExit lane="E7_1" pos="50"/>
     <detExit lane="E7_2" pos="50"/>
     <detExit lane="E7_3" pos="50"/>
	 <detExit lane="E7_4" pos="50"/>
     <detExit lane="E20_0" pos="50"/>
     <detExit lane="E20_1" pos="50"/>
     <detExit lane="E20_2" pos="50"/>     
     <detExit lane="E21_0" pos="50"/>
     <detExit lane="E21_1" pos="50"/>
     <detExit lane="E21_2" pos="50"/>
  </entryExitDetector>

  <entryExitDetector id="e3_9_det" freq="120" file="output/data_e3.xml">
     <detEntry lane="E7_0" pos="50"/>
     <detEntry lane="E7_1" pos="50"/>
     <detEntry lane="E7_2" pos="50"/>
     <detEntry lane="E7_3" pos="50"/>
	 <detEntry lane="E7_4" pos="50"/>
	 <detEntry lane="-E28_0" pos="50"/>
     <detEntry lane="-E28_1" pos="50"/>
     <detEntry lane="-E28_2" pos="50"/>
     <detEntry lane="-E28_3" pos="50"/>
	 <detEntry lane="-E28_4" pos="50"/>
     <detEntry lane="-E22_0" pos="50"/>
     <detEntry lane="-E22_1" pos="50"/>
     <detEntry lane="-E22_2" pos="50"/>     
     <detEntry lane="-E23_0" pos="50"/>
     <detEntry lane="-E23_1" pos="50"/>
     <detEntry lane="-E23_2" pos="50"/>

     <detExit lane="-E7_0" pos="50"/>
     <detExit lane="-E7_1" pos="50"/>
     <detExit lane="-E7_2" pos="50"/>
     <detExit lane="-E7_3" pos="50"/>
	 <detExit lane="-E7_4" pos="50"/>
	 <detExit lane="E28_0" pos="50"/>
     <detExit lane="E28_1" pos="50"/>
     <detExit lane="E28_2" pos="50"/>
     <detExit lane="E28_3" pos="50"/>
	 <detExit lane="E28_4" pos="50"/>
     <detExit lane="E22_0" pos="50"/>
     <detExit lane="E22_1" pos="50"/>
     <detExit lane="E22_2" pos="50"/>     
     <detExit lane="E23_0" pos="50"/>
     <detExit lane="E23_1" pos="50"/>
     <detExit lane="E23_2" pos="50"/>
  </entryExitDetector>

</additional>