<?xml version="1.0" encoding="UTF-8"?>

<!-- generated on 2024-05-06 20:28:51 by Eclipse SUMO jtrrouter Version 1.19.0
<configuration xmlns:xsi="http://www.w3.org/2001/XMLSchema-instance" xsi:noNamespaceSchemaLocation="http://sumo.dlr.de/xsd/jtrrouterConfiguration.xsd">

    <input>
        <net-file value="4.net.xml"/>
        <route-files value="vtype_def.xml,vdistribution_def.xml,v_vehs.flows.xml"/>
        <turn-ratio-files value="v_vehs.turns.xml"/>
    </input>

    <output>
        <output-file value="v_vehs.rou.xml"/>
    </output>

    <processing>
        <accept-all-destinations value="true"/>
    </processing>

</configuration>
-->

<routes xmlns:xsi="http://www.w3.org/2001/XMLSchema-instance" xsi:noNamespaceSchemaLocation="http://sumo.dlr.de/xsd/routes_file.xsd">
    <vType id="vt_car" minGap="2.50" maxSpeed="15.00" vClass="passenger" color="yellow" laneChangeModel="LC2013" accel="2.6" decel="4.5" sigma="0.5"/>
    <vehicle id="chegongzhuangxilu_east_T2.0" type="vt_car" depart="0.00" departLane="best">
        <route edges="E3 E4 E5 E6"/>
    </vehicle>
    <vehicle id="chegongzhuangxilu_west_T2.0" type="vt_car" depart="0.00" departLane="best">
        <route edges="E8 E9 E7"/>
    </vehicle>
    <vehicle id="fuchenglu_east_T2.0" type="vt_car" depart="0.00" departLane="best">
        <route edges="E33 E34 E35"/>
    </vehicle>
    <vehicle id="fuchenglu_west_T2.0" type="vt_car" depart="0.00" departLane="best">
        <route edges="E37 E38 E36"/>
    </vehicle>
    <vehicle id="shoutinanlu_north_T2.0" type="vt_car" depart="0.00" departLane="best">
        <route edges="E10 E11 E12 E13 E16 E17 E29 E30 E35"/>
    </vehicle>
    <vehicle id="zengguanglu_east_T2.0" type="vt_car" depart="0.00" departLane="best">
        <route edges="E19 E18 E29 E30 E36"/>
    </vehicle>
    <vehicle id="zengguanglu_west_T2.0" type="vt_car" depart="0.00" departLane="best">
        <route edges="E23 E22 E29 E30 E36"/>
    </vehicle>
    <vehicle id="shoutinanlu_north_T2.1" type="vt_car" depart="10.03" departLane="best">
        <route edges="E10 E11 E12 E13 E16 E17 E29 E30 E35"/>
    </vehicle>
    <vehicle id="chegongzhuangxilu_east_T2.1" type="vt_car" depart="11.08" departLane="best">
        <route edges="E3 E4 E5 E6"/>
    </vehicle>
    <vehicle id="fuchenglu_east_T2.1" type="vt_car" depart="14.58" departLane="best">
        <route edges="E33 E34 E35"/>
    </vehicle>
    <vehicle id="fuchenglu_west_T2.1" type="vt_car" depart="17.39" departLane="best">
        <route edges="E37 E38 E36"/>
    </vehicle>
    <vehicle id="shoutinanlu_north_T2.2" type="vt_car" depart="20.06" departLane="best">
        <route edges="E10 E11 E12 E13 E16 E17 E29 E30 E36"/>
    </vehicle>
    <vehicle id="chegongzhuangxilu_east_T2.2" type="vt_car" depart="22.15" departLane="best">
        <route edges="E3 E4 E5 E7"/>
    </vehicle>
    <vehicle id="chegongzhuangxilu_west_T2.1" type="vt_car" depart="24.83" departLane="best">
        <route edges="E8 E9 E7"/>
    </vehicle>
    <vehicle id="fuchenglu_east_T2.2" type="vt_car" depart="29.15" departLane="best">
        <route edges="E33 E34 E35"/>
    </vehicle>
    <vehicle id="zengguanglu_east_T2.1" type="vt_car" depart="30.00" departLane="best">
        <route edges="E19 E18 E29 E30 E35"/>
    </vehicle>
    <vehicle id="shoutinanlu_north_T2.3" type="vt_car" depart="30.08" departLane="best">
        <route edges="E10 E11 E12 E13 E16 E17 E29 E30 E35"/>
    </vehicle>
    <vehicle id="chegongzhuangxilu_east_T2.3" type="vt_car" depart="33.23" departLane="best">
        <route edges="E3 E4 E5 E6"/>
    </vehicle>
    <vehicle id="fuchenglu_west_T2.2" type="vt_car" depart="34.78" departLane="best">
        <route edges="E37 E38 E36"/>
    </vehicle>
    <vehicle id="shoutinanlu_north_T2.4" type="vt_car" depart="40.11" departLane="best">
        <route edges="E10 E11 E12 E13 E6"/>
    </vehicle>
    <vehicle id="fuchenglu_east_T2.3" type="vt_car" depart="43.73" departLane="best">
        <route edges="E33 E34 E35"/>
    </vehicle>
    <vehicle id="chegongzhuangxilu_east_T2.4" type="vt_car" depart="44.31" departLane="best">
        <route edges="E3 E4 E5 E16 E17 E29 E30 E36"/>
    </vehicle>
    <vehicle id="chegongzhuangxilu_west_T2.2" type="vt_car" depart="49.66" departLane="best">
        <route edges="E8 E9 E7"/>
    </vehicle>
    <vehicle id="shoutinanlu_north_T2.5" type="vt_car" depart="50.14" departLane="best">
        <route edges="E10 E11 E12 E13 E16 E17 E24 E25"/>
    </vehicle>
    <vehicle id="zengguanglu_west_T2.1" type="vt_car" depart="50.70" departLane="best">
        <route edges="E23 E22 E20 E21"/>
    </vehicle>
    <vehicle id="fuchenglu_west_T2.3" type="vt_car" depart="52.17" departLane="best">
        <route edges="E37 E38 E36"/>
    </vehicle>
    <vehicle id="chegongzhuangxilu_east_T2.5" type="vt_car" depart="55.39" departLane="best">
        <route edges="E3 E4 E5 E6"/>
    </vehicle>
    <vehicle id="fuchenglu_east_T2.4" type="vt_car" depart="58.30" departLane="best">
        <route edges="E33 E34 E35"/>
    </vehicle>
    <vehicle id="zengguanglu_east_T2.2" type="vt_car" depart="60.00" departLane="best">
        <route edges="E19 E18 E29 E30 E35"/>
    </vehicle>
    <vehicle id="shoutinanlu_north_T2.6" type="vt_car" depart="60.17" departLane="best">
        <route edges="E10 E11 E12 E13 E6"/>
    </vehicle>
    <vehicle id="chegongzhuangxilu_east_T2.6" type="vt_car" depart="66.46" departLane="best">
        <route edges="E3 E4 E5 E6"/>
    </vehicle>
    <vehicle id="fuchenglu_west_T2.4" type="vt_car" depart="69.56" departLane="best">
        <route edges="E37 E38 E36"/>
    </vehicle>
    <vehicle id="shoutinanlu_north_T2.7" type="vt_car" depart="70.20" departLane="best">
        <route edges="E10 E11 E12 E13 E6"/>
    </vehicle>
    <vehicle id="fuchenglu_east_T2.5" type="vt_car" depart="72.88" departLane="best">
        <route edges="E33 E34 E35"/>
    </vehicle>
    <vehicle id="chegongzhuangxilu_west_T2.3" type="vt_car" depart="74.48" departLane="best">
        <route edges="E8 E9 E6"/>
    </vehicle>
    <vehicle id="chegongzhuangxilu_east_T2.7" type="vt_car" depart="77.54" departLane="best">
        <route edges="E3 E4 E5 E0 E1 E2"/>
    </vehicle>
    <vehicle id="shoutinanlu_north_T2.8" type="vt_car" depart="80.22" departLane="best">
        <route edges="E10 E11 E12 E13 E16 E17 E24 E25"/>
    </vehicle>
    <vehicle id="fuchenglu_west_T2.5" type="vt_car" depart="86.96" departLane="best">
        <route edges="E37 E38 E36"/>
    </vehicle>
    <vehicle id="fuchenglu_east_T2.6" type="vt_car" depart="87.45" departLane="best">
        <route edges="E33 E34 E35"/>
    </vehicle>
    <vehicle id="chegongzhuangxilu_east_T2.8" type="vt_car" depart="88.62" departLane="best">
        <route edges="E3 E4 E5 E16 E17 E29 E30 E35"/>
    </vehicle>
    <vehicle id="zengguanglu_east_T2.3" type="vt_car" depart="90.00" departLane="best">
        <route edges="E19 E18 E15 E14 E0 E1 E2"/>
    </vehicle>
    <vehicle id="shoutinanlu_north_T2.9" type="vt_car" depart="90.25" departLane="best">
        <route edges="E10 E11 E12 E13 E6"/>
    </vehicle>
    <vehicle id="chegongzhuangxilu_west_T2.4" type="vt_car" depart="99.31" departLane="best">
        <route edges="E8 E9 E7"/>
    </vehicle>
    <vehicle id="chegongzhuangxilu_east_T2.9" type="vt_car" depart="99.69" departLane="best">
        <route edges="E3 E4 E5 E6"/>
    </vehicle>
    <vehicle id="shoutinanlu_north_T2.10" type="vt_car" depart="100.28" departLane="best">
        <route edges="E10 E11 E12 E13 E16 E17 E29 E30 E35"/>
    </vehicle>
    <vehicle id="zengguanglu_west_T2.2" type="vt_car" depart="101.41" departLane="best">
        <route edges="E23 E22 E20 E21"/>
    </vehicle>
    <vehicle id="fuchenglu_east_T2.7" type="vt_car" depart="102.03" departLane="best">
        <route edges="E33 E34 E35"/>
    </vehicle>
    <vehicle id="fuchenglu_west_T2.6" type="vt_car" depart="104.35" departLane="best">
        <route edges="E37 E38 E27 E26 E20 E21"/>
    </vehicle>
    <vehicle id="shoutinanlu_north_T2.11" type="vt_car" depart="110.31" departLane="best">
        <route edges="E10 E11 E12 E13 E6"/>
    </vehicle>
    <vehicle id="chegongzhuangxilu_east_T2.10" type="vt_car" depart="110.77" departLane="best">
        <route edges="E3 E4 E5 E6"/>
    </vehicle>
    <vehicle id="fuchenglu_east_T2.8" type="vt_car" depart="116.60" departLane="best">
        <route edges="E33 E34 E35"/>
    </vehicle>
    <vehicle id="zengguanglu_east_T2.4" type="vt_car" depart="120.00" departLane="best">
        <route edges="E19 E18 E24 E25"/>
    </vehicle>
    <vehicle id="shoutinanlu_north_T2.12" type="vt_car" depart="120.34" departLane="best">
        <route edges="E10 E11 E12 E13 E7"/>
    </vehicle>
    <vehicle id="fuchenglu_west_T2.7" type="vt_car" depart="121.74" departLane="best">
        <route edges="E37 E38 E36"/>
    </vehicle>
    <vehicle id="chegongzhuangxilu_east_T2.11" type="vt_car" depart="121.85" departLane="best">
        <route edges="E3 E4 E5 E6"/>
    </vehicle>
    <vehicle id="chegongzhuangxilu_west_T2.5" type="vt_car" depart="124.14" departLane="best">
        <route edges="E8 E9 E7"/>
    </vehicle>
    <vehicle id="shoutinanlu_north_T2.13" type="vt_car" depart="130.36" departLane="best">
        <route edges="E10 E11 E12 E13 E6"/>
    </vehicle>
    <vehicle id="fuchenglu_east_T2.9" type="vt_car" depart="131.18" departLane="best">
        <route edges="E33 E34 E27 E26 E29 E30 E35"/>
    </vehicle>
    <vehicle id="chegongzhuangxilu_east_T2.12" type="vt_car" depart="132.92" departLane="best">
        <route edges="E3 E4 E5 E16 E17 E29 E30 E35"/>
    </vehicle>
    <vehicle id="fuchenglu_west_T2.8" type="vt_car" depart="139.13" departLane="best">
        <route edges="E37 E38 E27 E26 E15 E14 E6"/>
    </vehicle>
    <vehicle id="shoutinanlu_north_T2.14" type="vt_car" depart="140.39" departLane="best">
        <route edges="E10 E11 E12 E13 E6"/>
    </vehicle>
    <vehicle id="chegongzhuangxilu_east_T2.13" type="vt_car" depart="144.00" departLane="best">
        <route edges="E3 E4 E5 E16 E17 E29 E30 E35"/>
    </vehicle>
    <vehicle id="fuchenglu_east_T2.10" type="vt_car" depart="145.75" departLane="best">
        <route edges="E33 E34 E35"/>
    </vehicle>
    <vehicle id="chegongzhuangxilu_west_T2.6" type="vt_car" depart="148.97" departLane="best">
        <route edges="E8 E9 E0 E1 E2"/>
    </vehicle>
    <vehicle id="zengguanglu_east_T2.5" type="vt_car" depart="150.00" departLane="best">
        <route edges="E19 E18 E24 E25"/>
    </vehicle>
    <vehicle id="shoutinanlu_north_T2.15" type="vt_car" depart="150.42" departLane="best">
        <route edges="E10 E11 E12 E13 E16 E17 E29 E30 E36"/>
    </vehicle>
    <vehicle id="zengguanglu_west_T2.3" type="vt_car" depart="152.11" departLane="best">
        <route edges="E23 E22 E20 E21"/>
    </vehicle>
    <vehicle id="chegongzhuangxilu_east_T2.14" type="vt_car" depart="155.08" departLane="best">
        <route edges="E3 E4 E5 E7"/>
    </vehicle>
    <vehicle id="fuchenglu_west_T2.9" type="vt_car" depart="156.52" departLane="best">
        <route edges="E37 E38 E36"/>
    </vehicle>
    <vehicle id="fuchenglu_east_T2.11" type="vt_car" depart="160.33" departLane="best">
        <route edges="E33 E34 E35"/>
    </vehicle>
    <vehicle id="shoutinanlu_north_T2.16" type="vt_car" depart="160.45" departLane="best">
        <route edges="E10 E11 E12 E13 E16 E17 E29 E30 E36"/>
    </vehicle>
    <vehicle id="chegongzhuangxilu_east_T2.15" type="vt_car" depart="166.16" departLane="best">
        <route edges="E3 E4 E5 E0 E1 E2"/>
    </vehicle>
    <vehicle id="shoutinanlu_north_T2.17" type="vt_car" depart="170.48" departLane="best">
        <route edges="E10 E11 E12 E13 E16 E17 E29 E30 E36"/>
    </vehicle>
    <vehicle id="chegongzhuangxilu_west_T2.7" type="vt_car" depart="173.80" departLane="best">
        <route edges="E8 E9 E7"/>
    </vehicle>
    <vehicle id="fuchenglu_west_T2.10" type="vt_car" depart="173.91" departLane="best">
        <route edges="E37 E38 E36"/>
    </vehicle>
    <vehicle id="fuchenglu_east_T2.12" type="vt_car" depart="174.90" departLane="best">
        <route edges="E33 E34 E35"/>
    </vehicle>
    <vehicle id="chegongzhuangxilu_east_T2.16" type="vt_car" depart="177.23" departLane="best">
        <route edges="E3 E4 E5 E6"/>
    </vehicle>
    <vehicle id="zengguanglu_east_T2.6" type="vt_car" depart="180.00" departLane="best">
        <route edges="E19 E18 E15 E14 E16 E17 E20 E21"/>
    </vehicle>
    <vehicle id="shoutinanlu_north_T2.18" type="vt_car" depart="180.50" departLane="best">
        <route edges="E10 E11 E12 E13 E16 E17 E24 E25"/>
    </vehicle>
    <vehicle id="chegongzhuangxilu_east_T2.17" type="vt_car" depart="188.31" departLane="best">
        <route edges="E3 E4 E5 E0 E1 E2"/>
    </vehicle>
    <vehicle id="fuchenglu_east_T2.13" type="vt_car" depart="189.48" departLane="best">
        <route edges="E33 E34 E35"/>
    </vehicle>
    <vehicle id="shoutinanlu_north_T2.19" type="vt_car" depart="190.53" departLane="best">
        <route edges="E10 E11 E12 E13 E16 E17 E29 E30 E36"/>
    </vehicle>
    <vehicle id="fuchenglu_west_T2.11" type="vt_car" depart="191.30" departLane="best">
        <route edges="E37 E38 E36"/>
    </vehicle>
    <vehicle id="chegongzhuangxilu_west_T2.8" type="vt_car" depart="198.62" departLane="best">
        <route edges="E8 E9 E7"/>
    </vehicle>
    <vehicle id="chegongzhuangxilu_east_T2.18" type="vt_car" depart="199.39" departLane="best">
        <route edges="E3 E4 E5 E16 E17 E29 E30 E36"/>
    </vehicle>
    <vehicle id="shoutinanlu_north_T2.20" type="vt_car" depart="200.56" departLane="best">
        <route edges="E10 E11 E12 E13 E16 E17 E29 E30 E35"/>
    </vehicle>
    <vehicle id="zengguanglu_west_T2.4" type="vt_car" depart="202.82" departLane="best">
        <route edges="E23 E22 E29 E30 E35"/>
    </vehicle>
    <vehicle id="fuchenglu_east_T2.14" type="vt_car" depart="204.05" departLane="best">
        <route edges="E33 E34 E35"/>
    </vehicle>
    <vehicle id="fuchenglu_west_T2.12" type="vt_car" depart="208.69" departLane="best">
        <route edges="E37 E38 E36"/>
    </vehicle>
    <vehicle id="zengguanglu_east_T2.7" type="vt_car" depart="210.00" departLane="best">
        <route edges="E19 E18 E24 E25"/>
    </vehicle>
    <vehicle id="chegongzhuangxilu_east_T2.19" type="vt_car" depart="210.46" departLane="best">
        <route edges="E3 E4 E5 E6"/>
    </vehicle>
    <vehicle id="shoutinanlu_north_T2.21" type="vt_car" depart="210.59" departLane="best">
        <route edges="E10 E11 E12 E13 E16 E17 E29 E30 E35"/>
    </vehicle>
    <vehicle id="fuchenglu_east_T2.15" type="vt_car" depart="218.63" departLane="best">
        <route edges="E33 E34 E35"/>
    </vehicle>
    <vehicle id="shoutinanlu_north_T2.22" type="vt_car" depart="220.62" departLane="best">
        <route edges="E10 E11 E12 E13 E6"/>
    </vehicle>
    <vehicle id="chegongzhuangxilu_east_T2.20" type="vt_car" depart="221.54" departLane="best">
        <route edges="E3 E4 E5 E16 E17 E29 E30 E36"/>
    </vehicle>
    <vehicle id="chegongzhuangxilu_west_T2.9" type="vt_car" depart="223.45" departLane="best">
        <route edges="E8 E9 E7"/>
    </vehicle>
    <vehicle id="fuchenglu_west_T2.13" type="vt_car" depart="226.08" departLane="best">
        <route edges="E37 E38 E36"/>
    </vehicle>
    <vehicle id="shoutinanlu_north_T2.23" type="vt_car" depart="230.64" departLane="best">
        <route edges="E10 E11 E12 E13 E16 E17 E29 E30 E35"/>
    </vehicle>
    <vehicle id="chegongzhuangxilu_east_T2.21" type="vt_car" depart="232.62" departLane="best">
        <route edges="E3 E4 E5 E0 E1 E2"/>
    </vehicle>
    <vehicle id="fuchenglu_east_T2.16" type="vt_car" depart="233.20" departLane="best">
        <route edges="E33 E34 E35"/>
    </vehicle>
    <vehicle id="zengguanglu_east_T2.8" type="vt_car" depart="240.00" departLane="best">
        <route edges="E19 E18 E24 E25"/>
    </vehicle>
    <vehicle id="shoutinanlu_north_T2.24" type="vt_car" depart="240.67" departLane="best">
        <route edges="E10 E11 E12 E13 E16 E17 E29 E30 E36"/>
    </vehicle>
    <vehicle id="fuchenglu_west_T2.14" type="vt_car" depart="243.47" departLane="best">
        <route edges="E37 E38 E36"/>
    </vehicle>
    <vehicle id="chegongzhuangxilu_east_T2.22" type="vt_car" depart="243.69" departLane="best">
        <route edges="E3 E4 E5 E6"/>
    </vehicle>
    <vehicle id="fuchenglu_east_T2.17" type="vt_car" depart="247.78" departLane="best">
        <route edges="E33 E34 E35"/>
    </vehicle>
    <vehicle id="chegongzhuangxilu_west_T2.10" type="vt_car" depart="248.28" departLane="best">
        <route edges="E8 E9 E7"/>
    </vehicle>
    <vehicle id="shoutinanlu_north_T2.25" type="vt_car" depart="250.70" departLane="best">
        <route edges="E10 E11 E12 E13 E16 E17 E29 E30 E35"/>
    </vehicle>
    <vehicle id="zengguanglu_west_T2.5" type="vt_car" depart="253.52" departLane="best">
        <route edges="E23 E22 E20 E21"/>
    </vehicle>
    <vehicle id="chegongzhuangxilu_east_T2.23" type="vt_car" depart="254.77" departLane="best">
        <route edges="E3 E4 E5 E16 E17 E29 E30 E36"/>
    </vehicle>
    <vehicle id="shoutinanlu_north_T2.26" type="vt_car" depart="260.73" departLane="best">
        <route edges="E10 E11 E12 E13 E16 E17 E29 E30 E36"/>
    </vehicle>
    <vehicle id="fuchenglu_west_T2.15" type="vt_car" depart="260.87" departLane="best">
        <route edges="E37 E38 E36"/>
    </vehicle>
    <vehicle id="fuchenglu_east_T2.18" type="vt_car" depart="262.35" departLane="best">
        <route edges="E33 E34 E35"/>
    </vehicle>
    <vehicle id="chegongzhuangxilu_east_T2.24" type="vt_car" depart="265.85" departLane="best">
        <route edges="E3 E4 E5 E16 E17 E29 E30 E36"/>
    </vehicle>
    <vehicle id="zengguanglu_east_T2.9" type="vt_car" depart="270.00" departLane="best">
        <route edges="E19 E18 E24 E25"/>
    </vehicle>
    <vehicle id="shoutinanlu_north_T2.27" type="vt_car" depart="270.76" departLane="best">
        <route edges="E10 E11 E12 E13 E16 E17 E29 E30 E35"/>
    </vehicle>
    <vehicle id="chegongzhuangxilu_west_T2.11" type="vt_car" depart="273.11" departLane="best">
        <route edges="E8 E9 E7"/>
    </vehicle>
    <vehicle id="chegongzhuangxilu_east_T2.25" type="vt_car" depart="276.93" departLane="best">
        <route edges="E3 E4 E5 E0 E1 E2"/>
    </vehicle>
    <vehicle id="fuchenglu_east_T2.19" type="vt_car" depart="276.93" departLane="best">
        <route edges="E33 E34 E35"/>
    </vehicle>
    <vehicle id="fuchenglu_west_T2.16" type="vt_car" depart="278.26" departLane="best">
        <route edges="E37 E38 E27 E26 E15 E14 E0 E1 E2"/>
    </vehicle>
    <vehicle id="shoutinanlu_north_T2.28" type="vt_car" depart="280.78" departLane="best">
        <route edges="E10 E11 E12 E13 E6"/>
    </vehicle>
    <vehicle id="chegongzhuangxilu_east_T2.26" type="vt_car" depart="288.00" departLane="best">
        <route edges="E3 E4 E5 E6"/>
    </vehicle>
    <vehicle id="shoutinanlu_north_T2.29" type="vt_car" depart="290.81" departLane="best">
        <route edges="E10 E11 E12 E13 E6"/>
    </vehicle>
    <vehicle id="fuchenglu_east_T2.20" type="vt_car" depart="291.50" departLane="best">
        <route edges="E33 E34 E35"/>
    </vehicle>
    <vehicle id="fuchenglu_west_T2.17" type="vt_car" depart="295.65" departLane="best">
        <route edges="E37 E38 E27 E26 E15 E14 E0 E1 E2"/>
    </vehicle>
    <vehicle id="chegongzhuangxilu_west_T2.12" type="vt_car" depart="297.94" departLane="best">
        <route edges="E8 E9 E16 E17 E29 E30 E35"/>
    </vehicle>
    <vehicle id="chegongzhuangxilu_east_T2.27" type="vt_car" depart="299.08" departLane="best">
        <route edges="E3 E4 E5 E6"/>
    </vehicle>
    <vehicle id="zengguanglu_east_T2.10" type="vt_car" depart="300.00" departLane="best">
        <route edges="E19 E18 E24 E25"/>
    </vehicle>
    <vehicle id="shoutinanlu_north_T2.30" type="vt_car" depart="300.84" departLane="best">
        <route edges="E10 E11 E12 E13 E16 E17 E29 E30 E35"/>
    </vehicle>
    <vehicle id="zengguanglu_west_T2.6" type="vt_car" depart="304.22" departLane="best">
        <route edges="E23 E22 E29 E30 E35"/>
    </vehicle>
    <vehicle id="fuchenglu_east_T2.21" type="vt_car" depart="306.08" departLane="best">
        <route edges="E33 E34 E35"/>
    </vehicle>
    <vehicle id="chegongzhuangxilu_east_T2.28" type="vt_car" depart="310.16" departLane="best">
        <route edges="E3 E4 E5 E16 E17 E29 E30 E36"/>
    </vehicle>
    <vehicle id="shoutinanlu_north_T2.31" type="vt_car" depart="310.87" departLane="best">
        <route edges="E10 E11 E12 E13 E6"/>
    </vehicle>
    <vehicle id="fuchenglu_west_T2.18" type="vt_car" depart="313.04" departLane="best">
        <route edges="E37 E38 E36"/>
    </vehicle>
    <vehicle id="fuchenglu_east_T2.22" type="vt_car" depart="320.65" departLane="best">
        <route edges="E33 E34 E27 E26 E20 E21"/>
    </vehicle>
    <vehicle id="shoutinanlu_north_T2.32" type="vt_car" depart="320.90" departLane="best">
        <route edges="E10 E11 E12 E13 E16 E17 E29 E30 E35"/>
    </vehicle>
    <vehicle id="chegongzhuangxilu_east_T2.29" type="vt_car" depart="321.23" departLane="best">
        <route edges="E3 E4 E5 E6"/>
    </vehicle>
    <vehicle id="chegongzhuangxilu_west_T2.13" type="vt_car" depart="322.76" departLane="best">
        <route edges="E8 E9 E16 E17 E15 E14 E6"/>
    </vehicle>
    <vehicle id="zengguanglu_east_T2.11" type="vt_car" depart="330.00" departLane="best">
        <route edges="E19 E18 E24 E25"/>
    </vehicle>
    <vehicle id="fuchenglu_west_T2.19" type="vt_car" depart="330.43" departLane="best">
        <route edges="E37 E38 E36"/>
    </vehicle>
    <vehicle id="shoutinanlu_north_T2.33" type="vt_car" depart="330.92" departLane="best">
        <route edges="E10 E11 E12 E13 E16 E17 E29 E30 E35"/>
    </vehicle>
    <vehicle id="chegongzhuangxilu_east_T2.30" type="vt_car" depart="332.31" departLane="best">
        <route edges="E3 E4 E5 E6"/>
    </vehicle>
    <vehicle id="fuchenglu_east_T2.23" type="vt_car" depart="335.23" departLane="best">
        <route edges="E33 E34 E35"/>
    </vehicle>
    <vehicle id="shoutinanlu_north_T2.34" type="vt_car" depart="340.95" departLane="best">
        <route edges="E10 E11 E12 E13 E7"/>
    </vehicle>
    <vehicle id="chegongzhuangxilu_east_T2.31" type="vt_car" depart="343.39" departLane="best">
        <route edges="E3 E4 E5 E0 E1 E2"/>
    </vehicle>
    <vehicle id="chegongzhuangxilu_west_T2.14" type="vt_car" depart="347.59" departLane="best">
        <route edges="E8 E9 E7"/>
    </vehicle>
    <vehicle id="fuchenglu_west_T2.20" type="vt_car" depart="347.82" departLane="best">
        <route edges="E37 E38 E36"/>
    </vehicle>
    <vehicle id="fuchenglu_east_T2.24" type="vt_car" depart="349.80" departLane="best">
        <route edges="E33 E34 E35"/>
    </vehicle>
    <vehicle id="shoutinanlu_north_T2.35" type="vt_car" depart="350.98" departLane="best">
        <route edges="E10 E11 E12 E13 E6"/>
    </vehicle>
    <vehicle id="chegongzhuangxilu_east_T2.32" type="vt_car" depart="354.46" departLane="best">
        <route edges="E3 E4 E5 E6"/>
    </vehicle>
    <vehicle id="zengguanglu_west_T2.7" type="vt_car" depart="354.93" departLane="best">
        <route edges="E23 E22 E15 E14 E0 E1 E2"/>
    </vehicle>
    <vehicle id="zengguanglu_east_T2.12" type="vt_car" depart="360.00" departLane="best">
        <route edges="E19 E18 E29 E30 E35"/>
    </vehicle>
    <vehicle id="shoutinanlu_north_T2.36" type="vt_car" depart="361.01" departLane="best">
        <route edges="E10 E11 E12 E13 E16 E17 E29 E30 E36"/>
    </vehicle>
    <vehicle id="fuchenglu_east_T2.25" type="vt_car" depart="364.38" departLane="best">
        <route edges="E33 E34 E35"/>
    </vehicle>
    <vehicle id="fuchenglu_west_T2.21" type="vt_car" depart="365.21" departLane="best">
        <route edges="E37 E38 E36"/>
    </vehicle>
    <vehicle id="chegongzhuangxilu_east_T2.33" type="vt_car" depart="365.54" departLane="best">
        <route edges="E3 E4 E5 E6"/>
    </vehicle>
    <vehicle id="shoutinanlu_north_T2.37" type="vt_car" depart="371.04" departLane="best">
        <route edges="E10 E11 E12 E13 E16 E17 E29 E30 E35"/>
    </vehicle>
    <vehicle id="chegongzhuangxilu_west_T2.15" type="vt_car" depart="372.42" departLane="best">
        <route edges="E8 E9 E16 E17 E29 E30 E35"/>
    </vehicle>
    <vehicle id="chegongzhuangxilu_east_T2.34" type="vt_car" depart="376.62" departLane="best">
        <route edges="E3 E4 E5 E0 E1 E2"/>
    </vehicle>
    <vehicle id="fuchenglu_east_T2.26" type="vt_car" depart="378.95" departLane="best">
        <route edges="E33 E34 E35"/>
    </vehicle>
    <vehicle id="shoutinanlu_north_T2.38" type="vt_car" depart="381.06" departLane="best">
        <route edges="E10 E11 E12 E13 E0 E1 E2"/>
    </vehicle>
    <vehicle id="fuchenglu_west_T2.22" type="vt_car" depart="382.60" departLane="best">
        <route edges="E37 E38 E36"/>
    </vehicle>
    <vehicle id="chegongzhuangxilu_east_T2.35" type="vt_car" depart="387.70" departLane="best">
        <route edges="E3 E4 E5 E0 E1 E2"/>
    </vehicle>
    <vehicle id="zengguanglu_east_T2.13" type="vt_car" depart="390.00" departLane="best">
        <route edges="E19 E18 E24 E25"/>
    </vehicle>
    <vehicle id="shoutinanlu_north_T2.39" type="vt_car" depart="391.09" departLane="best">
        <route edges="E10 E11 E12 E13 E6"/>
    </vehicle>
    <vehicle id="fuchenglu_east_T2.27" type="vt_car" depart="393.53" departLane="best">
        <route edges="E33 E34 E35"/>
    </vehicle>
    <vehicle id="chegongzhuangxilu_west_T2.16" type="vt_car" depart="397.25" departLane="best">
        <route edges="E8 E9 E7"/>
    </vehicle>
    <vehicle id="chegongzhuangxilu_east_T2.36" type="vt_car" depart="398.77" departLane="best">
        <route edges="E3 E4 E5 E16 E17 E29 E30 E35"/>
    </vehicle>
    <vehicle id="fuchenglu_west_T2.23" type="vt_car" depart="399.99" departLane="best">
        <route edges="E37 E38 E36"/>
    </vehicle>
    <vehicle id="shoutinanlu_north_T2.40" type="vt_car" depart="401.12" departLane="best">
        <route edges="E10 E11 E12 E13 E16 E17 E29 E30 E35"/>
    </vehicle>
    <vehicle id="zengguanglu_west_T2.8" type="vt_car" depart="405.63" departLane="best">
        <route edges="E23 E22 E29 E30 E36"/>
    </vehicle>
    <vehicle id="fuchenglu_east_T2.28" type="vt_car" depart="408.10" departLane="best">
        <route edges="E33 E34 E35"/>
    </vehicle>
    <vehicle id="chegongzhuangxilu_east_T2.37" type="vt_car" depart="409.85" departLane="best">
        <route edges="E3 E4 E5 E16 E17 E29 E30 E36"/>
    </vehicle>
    <vehicle id="shoutinanlu_north_T2.41" type="vt_car" depart="411.15" departLane="best">
        <route edges="E10 E11 E12 E13 E6"/>
    </vehicle>
    <vehicle id="fuchenglu_west_T2.24" type="vt_car" depart="417.38" departLane="best">
        <route edges="E37 E38 E27 E26 E15 E14 E6"/>
    </vehicle>
    <vehicle id="zengguanglu_east_T2.14" type="vt_car" depart="420.00" departLane="best">
        <route edges="E19 E18 E24 E25"/>
    </vehicle>
    <vehicle id="chegongzhuangxilu_east_T2.38" type="vt_car" depart="420.93" departLane="best">
        <route edges="E3 E4 E5 E0 E1 E2"/>
    </vehicle>
    <vehicle id="shoutinanlu_north_T2.42" type="vt_car" depart="421.18" departLane="best">
        <route edges="E10 E11 E12 E13 E6"/>
    </vehicle>
    <vehicle id="chegongzhuangxilu_west_T2.17" type="vt_car" depart="422.08" departLane="best">
        <route edges="E8 E9 E0 E1 E2"/>
    </vehicle>
    <vehicle id="fuchenglu_east_T2.29" type="vt_car" depart="422.68" departLane="best">
        <route edges="E33 E34 E35"/>
    </vehicle>
    <vehicle id="shoutinanlu_north_T2.43" type="vt_car" depart="431.20" departLane="best">
        <route edges="E10 E11 E12 E13 E16 E17 E29 E30 E36"/>
    </vehicle>
    <vehicle id="chegongzhuangxilu_east_T2.39" type="vt_car" depart="432.00" departLane="best">
        <route edges="E3 E4 E5 E16 E17 E29 E30 E36"/>
    </vehicle>
    <vehicle id="fuchenglu_west_T2.25" type="vt_car" depart="434.78" departLane="best">
        <route edges="E37 E38 E36"/>
    </vehicle>
    <vehicle id="fuchenglu_east_T2.30" type="vt_car" depart="437.25" departLane="best">
        <route edges="E33 E34 E35"/>
    </vehicle>
    <vehicle id="shoutinanlu_north_T2.44" type="vt_car" depart="441.23" departLane="best">
        <route edges="E10 E11 E12 E13 E16 E17 E24 E25"/>
    </vehicle>
    <vehicle id="chegongzhuangxilu_east_T2.40" type="vt_car" depart="443.08" departLane="best">
        <route edges="E3 E4 E5 E6"/>
    </vehicle>
    <vehicle id="chegongzhuangxilu_west_T2.18" type="vt_car" depart="446.90" departLane="best">
        <route edges="E8 E9 E7"/>
    </vehicle>
    <vehicle id="zengguanglu_east_T2.15" type="vt_car" depart="450.00" departLane="best">
        <route edges="E19 E18 E24 E25"/>
    </vehicle>
    <vehicle id="shoutinanlu_north_T2.45" type="vt_car" depart="451.26" departLane="best">
        <route edges="E10 E11 E12 E13 E16 E17 E29 E30 E35"/>
    </vehicle>
    <vehicle id="fuchenglu_east_T2.31" type="vt_car" depart="451.83" departLane="best">
        <route edges="E33 E34 E27 E26 E15 E14 E6"/>
    </vehicle>
    <vehicle id="fuchenglu_west_T2.26" type="vt_car" depart="452.17" departLane="best">
        <route edges="E37 E38 E36"/>
    </vehicle>
    <vehicle id="chegongzhuangxilu_east_T2.41" type="vt_car" depart="454.16" departLane="best">
        <route edges="E3 E4 E5 E6"/>
    </vehicle>
    <vehicle id="zengguanglu_west_T2.9" type="vt_car" depart="456.34" departLane="best">
        <route edges="E23 E22 E29 E30 E36"/>
    </vehicle>
    <vehicle id="shoutinanlu_north_T2.46" type="vt_car" depart="461.29" departLane="best">
        <route edges="E10 E11 E12 E13 E6"/>
    </vehicle>
    <vehicle id="chegongzhuangxilu_east_T2.42" type="vt_car" depart="465.23" departLane="best">