<additional>
    <edgeData id="E3" file="eE3.xml" freq="300" trackVehicles="true" withInternal="false"/>
</additional>