<routes>

	<vType id="t01" vClass="passenger" accel="0.8" length="5" maxSpeed="70" probability="0.8"/>
    <vType id="t02" vClass="truck" accel="1.8" length="15" maxSpeed="50" probability="0.2"/>
    <vTypeDistribution id="typedist1" vTypes="t01 t02"/>
<interval begin="0" end="3600">
	<flow id="0" from="E2" begin="0" end="1" number="2000" type="typedist1"/>
	<flow id="1" from="-E6" begin="0" end="1" number="2000" type="typedist1"/>
	<flow id="2" from="-E4" begin="0" end="1" number="2000" type="typedist1"/>
	<flow id="4" from="-E9" begin="0" end="1" number="2000" type="typedist1"/>
	<flow id="5" from="-E8" begin="0" end="1" number="2000" type="typedist1"/>
	<flow id="6" from="-E7" begin="0" end="1" number="2000" type="typedist1"/>
	<flow id="7" from="-E5" begin="0" end="1" number="2000" type="typedist1"/>
	<flow id="8" from="-E3" begin="0" end="1" number="2000" type="typedist1"/>
	</interval>
</routes>
