<?xml version="1.0" encoding="UTF-8"?>

<!-- generated on 2022-10-09 18:44:09 by Eclipse SUMO netedit Version 1.14.1
<configuration xmlns:xsi="http://www.w3.org/2001/XMLSchema-instance" xsi:noNamespaceSchemaLocation="http://sumo.dlr.de/xsd/netconvertConfiguration.xsd">

    <input>
        <sumo-net-file value="E:\sumo课\sumoclass\TraCI_instruction\sumo_class-2022fall\example.net.xml"/>
    </input>

    <output>
        <output-file value="E:\sumo课\sumoclass\TraCI_instruction\sumo_class-2022fall\example.net.xml"/>
    </output>

    <processing>
        <geometry.min-radius.fix.railways value="false"/>
        <geometry.max-grade.fix value="false"/>
        <offset.disable-normalization value="true"/>
        <lefthand value="false"/>
    </processing>

    <junctions>
        <no-turnarounds value="true"/>
        <junctions.corner-detail value="5"/>
        <junctions.limit-turn-speed value="5.5"/>
        <rectangular-lane-cut value="false"/>
    </junctions>

    <pedestrian>
        <walkingareas value="false"/>
    </pedestrian>

</configuration>
-->

<net version="1.9" junctionCornerDetail="5" limitTurnSpeed="5.50" xmlns:xsi="http://www.w3.org/2001/XMLSchema-instance" xsi:noNamespaceSchemaLocation="http://sumo.dlr.de/xsd/net_file.xsd">

    <location netOffset="0.00,0.00" convBoundary="-1363.91,-781.38,1674.88,568.39" origBoundary="-10000000000.00,-10000000000.00,10000000000.00,10000000000.00" projParameter="!"/>

    <edge id=":J0_0" function="internal">
        <lane id=":J0_0_0" index="0" speed="6.51" length="9.03" shape="-635.69,-53.18 -638.14,-52.84 -639.90,-51.80 -640.95,-50.05 -641.31,-47.60"/>
    </edge>
    <edge id=":J0_1" function="internal">
        <lane id=":J0_1_0" index="0" speed="13.89" length="27.47" shape="-635.69,-53.18 -643.79,-53.71 -649.29,-54.82 -654.79,-55.92 -662.89,-56.40"/>
        <lane id=":J0_1_1" index="1" speed="13.89" length="27.47" shape="-635.68,-56.38 -643.79,-56.91 -649.29,-58.02 -654.79,-59.12 -662.90,-59.60"/>
        <lane id=":J0_1_2" index="2" speed="13.89" length="27.47" shape="-635.67,-59.58 -643.78,-60.11 -649.29,-61.22 -654.79,-62.32 -662.90,-62.80"/>
    </edge>
    <edge id=":J0_4" function="internal">
        <lane id=":J0_4_0" index="0" speed="11.42" length="5.08" shape="-635.66,-62.78 -640.63,-63.81"/>
    </edge>
    <edge id=":J0_5" function="internal">
        <lane id=":J0_5_0" index="0" speed="3.65" length="1.44" shape="-635.66,-62.78 -636.85,-63.59"/>
    </edge>
    <edge id=":J0_22" function="internal">
        <lane id=":J0_22_0" index="0" speed="11.42" length="24.80" shape="-640.63,-63.81 -642.30,-64.15 -647.06,-68.22 -649.92,-74.97 -650.88,-84.42"/>
    </edge>
    <edge id=":J0_23" function="internal">
        <lane id=":J0_23_0" index="0" speed="3.65" length="3.23" shape="-636.85,-63.59 -637.25,-64.39 -636.85,-65.19 -635.64,-65.98"/>
    </edge>
    <edge id=":J0_6" function="internal">
        <lane id=":J0_6_0" index="0" speed="8.14" length="14.65" shape="-641.28,-84.44 -640.92,-79.17 -639.86,-75.40 -638.09,-73.14 -635.62,-72.38"/>
    </edge>
    <edge id=":J0_7" function="internal">
        <lane id=":J0_7_0" index="0" speed="13.89" length="36.83" shape="-641.28,-84.44 -641.31,-47.60"/>
        <lane id=":J0_7_1" index="1" speed="13.89" length="36.83" shape="-644.48,-84.43 -644.51,-47.61"/>
    </edge>
    <edge id=":J0_9" function="internal">
        <lane id=":J0_9_0" index="0" speed="11.40" length="11.25" shape="-647.68,-84.43 -648.62,-74.98 -649.30,-73.36"/>
    </edge>
    <edge id=":J0_10" function="internal">
        <lane id=":J0_10_0" index="0" speed="3.65" length="1.44" shape="-647.68,-84.43 -648.48,-83.23"/>
    </edge>
    <edge id=":J0_24" function="internal">
        <lane id=":J0_24_0" index="0" speed="11.40" length="18.64" shape="-649.30,-73.36 -651.47,-68.22 -656.23,-64.16 -662.90,-62.80"/>
    </edge>
    <edge id=":J0_25" function="internal">
        <lane id=":J0_25_0" index="0" speed="3.65" length="3.23" shape="-648.48,-83.23 -649.28,-82.82 -650.08,-83.22 -650.88,-84.42"/>
    </edge>
    <edge id=":J0_11" function="internal">
        <lane id=":J0_11_0" index="0" speed="6.53" length="9.09" shape="-662.94,-78.80 -660.46,-79.15 -658.69,-80.21 -657.63,-81.96 -657.28,-84.41"/>
    </edge>
    <edge id=":J0_12" function="internal">
        <lane id=":J0_12_0" index="0" speed="13.89" length="27.54" shape="-662.93,-75.60 -654.80,-75.12 -649.28,-74.02 -643.76,-72.91 -635.62,-72.38"/>
        <lane id=":J0_12_1" index="1" speed="13.89" length="27.54" shape="-662.92,-72.40 -654.80,-71.92 -649.28,-70.82 -643.76,-69.71 -635.63,-69.18"/>
        <lane id=":J0_12_2" index="2" speed="13.89" length="27.54" shape="-662.92,-69.20 -654.79,-68.72 -649.28,-67.62 -643.77,-66.51 -635.64,-65.98"/>
    </edge>
    <edge id=":J0_15" function="internal">
        <lane id=":J0_15_0" index="0" speed="10.86" length="6.42" shape="-662.91,-66.00 -656.58,-64.92"/>
    </edge>
    <edge id=":J0_16" function="internal">
        <lane id=":J0_16_0" index="0" speed="3.65" length="1.44" shape="-662.91,-66.00 -661.71,-65.20"/>
    </edge>
    <edge id=":J0_26" function="internal">
        <lane id=":J0_26_0" index="0" speed="10.86" length="20.73" shape="-656.58,-64.92 -656.24,-64.86 -651.48,-61.42 -648.64,-55.68 -647.71,-47.62"/>
    </edge>
    <edge id=":J0_27" function="internal">
        <lane id=":J0_27_0" index="0" speed="3.65" length="3.23" shape="-661.71,-65.20 -661.31,-64.40 -661.71,-63.60 -662.90,-62.80"/>
    </edge>
    <edge id=":J0_17" function="internal">
        <lane id=":J0_17_0" index="0" speed="7.30" length="11.67" shape="-657.31,-47.66 -657.65,-51.49 -658.69,-54.22 -660.44,-55.86 -662.89,-56.40"/>
    </edge>
    <edge id=":J0_18" function="internal">
        <lane id=":J0_18_0" index="0" speed="13.89" length="36.91" shape="-657.31,-47.66 -654.08,-84.42"/>
        <lane id=":J0_18_1" index="1" speed="13.89" length="36.91" shape="-654.11,-47.65 -650.88,-84.42"/>
    </edge>
    <edge id=":J0_20" function="internal">
        <lane id=":J0_20_0" index="0" speed="10.88" length="14.30" shape="-650.91,-47.64 -649.93,-55.68 -647.16,-61.23"/>
    </edge>
    <edge id=":J0_21" function="internal">
        <lane id=":J0_21_0" index="0" speed="3.65" length="2.34" shape="-650.91,-47.64 -650.11,-48.83 -649.31,-49.23"/>
    </edge>
    <edge id=":J0_28" function="internal">
        <lane id=":J0_28_0" index="0" speed="10.88" length="12.84" shape="-647.16,-61.23 -647.06,-61.42 -642.30,-64.85 -635.64,-65.98"/>
    </edge>
    <edge id=":J0_29" function="internal">
        <lane id=":J0_29_0" index="0" speed="3.65" length="2.34" shape="-649.31,-49.23 -648.51,-48.83 -647.71,-47.62"/>
    </edge>
    <edge id=":J1_0" function="internal">
        <lane id=":J1_0_0" index="0" speed="7.42" length="11.26" shape="-52.45,-54.28 -55.58,-53.88 -57.90,-52.66 -59.41,-50.62 -60.10,-47.77"/>
    </edge>
    <edge id=":J1_1" function="internal">
        <lane id=":J1_1_0" index="0" speed="13.89" length="22.46" shape="-52.45,-54.28 -74.91,-54.34"/>
        <lane id=":J1_1_1" index="1" speed="13.89" length="22.46" shape="-52.44,-57.48 -74.89,-57.54"/>
    </edge>
    <edge id=":J1_3" function="internal">
        <lane id=":J1_3_0" index="0" speed="9.72" length="10.12" shape="-52.43,-60.68 -58.02,-61.68 -61.52,-64.42"/>
    </edge>
    <edge id=":J1_4" function="internal">
        <lane id=":J1_4_0" index="0" speed="3.65" length="2.34" shape="-52.43,-60.68 -53.63,-61.48 -54.03,-62.28"/>
    </edge>
    <edge id=":J1_20" function="internal">
        <lane id=":J1_20_0" index="0" speed="9.72" length="12.67" shape="-61.52,-64.42 -61.82,-64.66 -63.83,-69.61 -64.05,-76.55"/>
    </edge>
    <edge id=":J1_21" function="internal">
        <lane id=":J1_21_0" index="0" speed="3.65" length="2.34" shape="-54.03,-62.28 -53.63,-63.08 -52.43,-63.88"/>
    </edge>
    <edge id=":J1_5" function="internal">
        <lane id=":J1_5_0" index="0" speed="6.33" length="9.04" shape="-57.67,-76.01 -57.52,-73.51 -56.60,-71.72 -54.90,-70.64 -52.42,-70.28"/>
    </edge>
    <edge id=":J1_6" function="internal">
        <lane id=":J1_6_0" index="0" speed="13.89" length="28.34" shape="-57.67,-76.01 -60.10,-47.77"/>
        <lane id=":J1_6_1" index="1" speed="13.89" length="28.34" shape="-60.86,-76.28 -63.29,-48.04"/>
    </edge>
    <edge id=":J1_8" function="internal">
        <lane id=":J1_8_0" index="0" speed="10.45" length="6.27" shape="-60.86,-76.28 -62.10,-70.13"/>
    </edge>
    <edge id=":J1_9" function="internal">
        <lane id=":J1_9_0" index="0" speed="3.65" length="1.44" shape="-60.86,-76.28 -61.76,-75.15"/>
    </edge>
    <edge id=":J1_22" function="internal">
        <lane id=":J1_22_0" index="0" speed="10.45" length="17.13" shape="-62.10,-70.13 -62.23,-69.46 -65.03,-64.60 -69.24,-61.69 -74.88,-60.74"/>
    </edge>
    <edge id=":J1_23" function="internal">
        <lane id=":J1_23_0" index="0" speed="3.65" length="3.23" shape="-61.76,-75.15 -62.59,-74.82 -63.35,-75.28 -64.05,-76.55"/>
    </edge>
    <edge id=":J1_10" function="internal">
        <lane id=":J1_10_0" index="0" speed="7.39" length="11.20" shape="-74.85,-70.34 -71.72,-70.74 -69.42,-71.95 -67.92,-73.97 -67.24,-76.82"/>
    </edge>
    <edge id=":J1_11" function="internal">
        <lane id=":J1_11_0" index="0" speed="13.89" length="22.43" shape="-74.85,-70.34 -52.42,-70.28"/>
        <lane id=":J1_11_1" index="1" speed="13.89" length="22.43" shape="-74.86,-67.14 -52.42,-67.08"/>
    </edge>
    <edge id=":J1_13" function="internal">
        <lane id=":J1_13_0" index="0" speed="9.72" length="10.10" shape="-74.87,-63.94 -69.28,-62.93 -65.81,-60.19"/>
    </edge>
    <edge id=":J1_14" function="internal">
        <lane id=":J1_14_0" index="0" speed="3.65" length="2.34" shape="-74.87,-63.94 -73.67,-63.14 -73.28,-62.34"/>
    </edge>
    <edge id=":J1_24" function="internal">
        <lane id=":J1_24_0" index="0" speed="9.72" length="12.69" shape="-65.81,-60.19 -65.49,-59.94 -63.49,-54.98 -63.29,-48.04"/>
    </edge>
    <edge id=":J1_25" function="internal">
        <lane id=":J1_25_0" index="0" speed="3.65" length="2.34" shape="-73.28,-62.34 -73.68,-61.54 -74.88,-60.74"/>
    </edge>
    <edge id=":J1_15" function="internal">
        <lane id=":J1_15_0" index="0" speed="6.33" length="9.04" shape="-69.67,-48.60 -69.81,-51.11 -70.73,-52.90 -72.43,-53.97 -74.91,-54.34"/>
    </edge>
    <edge id=":J1_16" function="internal">
        <lane id=":J1_16_0" index="0" speed="13.89" length="28.32" shape="-69.67,-48.60 -67.24,-76.82"/>
        <lane id=":J1_16_1" index="1" speed="13.89" length="28.32" shape="-66.48,-48.32 -64.05,-76.55"/>
    </edge>
    <edge id=":J1_18" function="internal">
        <lane id=":J1_18_0" index="0" speed="10.47" length="6.14" shape="-66.48,-48.32 -65.25,-54.34"/>
    </edge>
    <edge id=":J1_19" function="internal">
        <lane id=":J1_19_0" index="0" speed="3.65" length="1.44" shape="-66.48,-48.32 -65.58,-49.45"/>
    </edge>
    <edge id=":J1_26" function="internal">
        <lane id=":J1_26_0" index="0" speed="10.47" length="17.27" shape="-65.25,-54.34 -65.09,-55.14 -62.28,-60.00 -58.06,-62.92 -52.43,-63.88"/>
    </edge>
    <edge id=":J1_27" function="internal">
        <lane id=":J1_27_0" index="0" speed="3.65" length="3.23" shape="-65.58,-49.45 -64.75,-49.78 -63.98,-49.31 -63.29,-48.04"/>
    </edge>
    <edge id=":J10_0" function="internal">
        <lane id=":J10_0_0" index="0" speed="3.65" length="4.67" shape="-116.86,564.35 -117.76,565.48 -118.59,565.80 -119.35,565.34 -120.04,564.07"/>
    </edge>
    <edge id=":J11_0" function="internal">
        <lane id=":J11_0_0" index="0" speed="13.89" length="8.89" shape="-790.43,-72.11 -787.74,-73.12 -786.44,-75.32 -785.13,-77.52 -782.44,-78.53"/>
        <lane id=":J11_0_1" index="1" speed="13.89" length="8.89" shape="-790.43,-72.11 -787.97,-72.62 -786.43,-73.72 -784.90,-74.82 -782.44,-75.33"/>
        <lane id=":J11_0_2" index="2" speed="13.89" length="8.89" shape="-790.42,-68.91 -787.96,-69.42 -786.42,-70.52 -784.89,-71.62 -782.43,-72.13"/>
        <lane id=":J11_0_3" index="3" speed="13.89" length="8.89" shape="-790.42,-68.91 -782.42,-68.93"/>
        <lane id=":J11_0_4" index="4" speed="13.89" length="8.89" shape="-790.41,-65.71 -782.41,-65.73"/>
    </edge>
    <edge id=":J12_0" function="internal">
        <lane id=":J12_0_0" index="0" speed="13.89" length="0.10" shape="-786.36,-56.12 -786.36,-56.12"/>
        <lane id=":J12_0_1" index="1" speed="13.89" length="0.10" shape="-786.37,-59.32 -786.37,-59.32"/>
        <lane id=":J12_0_2" index="2" speed="13.89" length="0.10" shape="-786.38,-62.52 -786.38,-62.52"/>
    </edge>
    <edge id=":J13_0" function="internal">
        <lane id=":J13_0_0" index="0" speed="13.89" length="8.60" shape="-553.28,-56.09 -555.74,-55.59 -557.28,-54.50 -558.83,-53.41 -561.29,-52.91"/>
        <lane id=":J13_0_1" index="1" speed="13.89" length="8.60" shape="-553.27,-59.29 -555.73,-58.79 -557.27,-57.70 -558.82,-56.61 -561.28,-56.11"/>
        <lane id=":J13_0_2" index="2" speed="13.89" length="8.60" shape="-553.26,-62.49 -555.72,-61.99 -557.26,-60.90 -558.80,-59.81 -561.27,-59.31"/>
        <lane id=":J13_0_3" index="3" speed="13.89" length="8.60" shape="-553.26,-62.49 -561.26,-62.51"/>
    </edge>
    <edge id=":J14_0" function="internal">
        <lane id=":J14_0_0" index="0" speed="13.89" length="8.00" shape="581.90,-53.14 573.90,-53.16"/>
        <lane id=":J14_0_1" index="1" speed="13.89" length="8.00" shape="581.90,-56.34 573.90,-56.36"/>
        <lane id=":J14_0_2" index="2" speed="13.89" length="8.00" shape="581.91,-59.54 573.91,-59.56"/>
    </edge>
    <edge id=":J14_3" function="internal">
        <lane id=":J14_3_0" index="0" speed="13.89" length="8.60" shape="573.92,-69.16 576.39,-69.65 577.93,-70.75 579.47,-71.85 581.93,-72.34"/>
        <lane id=":J14_3_1" index="1" speed="13.89" length="8.60" shape="573.92,-65.96 576.38,-66.45 577.92,-67.55 579.46,-68.65 581.92,-69.14"/>
        <lane id=":J14_3_2" index="2" speed="13.89" length="8.60" shape="573.91,-62.76 576.38,-63.25 577.92,-64.35 579.46,-65.45 581.92,-65.94"/>
        <lane id=":J14_3_3" index="3" speed="13.89" length="8.60" shape="573.91,-62.76 581.91,-62.74"/>
    </edge>
    <edge id=":J15_0" function="internal">
        <lane id=":J15_0_0" index="0" speed="13.89" length="8.60" shape="809.12,-52.97 806.66,-52.47 805.12,-51.37 803.59,-50.27 801.13,-49.77"/>
        <lane id=":J15_0_1" index="1" speed="13.89" length="8.60" shape="809.12,-56.17 806.66,-55.67 805.12,-54.57 803.59,-53.47 801.12,-52.97"/>
        <lane id=":J15_0_2" index="2" speed="13.89" length="8.60" shape="809.12,-59.37 806.66,-58.87 805.12,-57.77 803.58,-56.67 801.12,-56.17"/>
        <lane id=":J15_0_3" index="3" speed="13.89" length="8.60" shape="809.12,-59.37 801.12,-59.37"/>
    </edge>
    <edge id=":J2_0" function="internal">
        <lane id=":J2_0_0" index="0" speed="6.52" length="9.03" shape="720.84,-49.73 718.39,-49.38 716.64,-48.33 715.58,-46.58 715.22,-44.13"/>
    </edge>
    <edge id=":J2_1" function="internal">
        <lane id=":J2_1_0" index="0" speed="13.89" length="27.62" shape="720.83,-52.93 712.68,-53.42 707.15,-54.52 701.61,-55.63 693.46,-56.14"/>
        <lane id=":J2_1_1" index="1" speed="13.89" length="27.62" shape="720.83,-56.13 712.68,-56.62 707.15,-57.72 701.62,-58.83 693.47,-59.34"/>
    </edge>
    <edge id=":J2_3" function="internal">
        <lane id=":J2_3_0" index="0" speed="10.98" length="6.28" shape="720.83,-59.33 714.65,-60.40"/>
    </edge>
    <edge id=":J2_4" function="internal">
        <lane id=":J2_4_0" index="0" speed="3.65" length="1.44" shape="720.83,-59.33 719.63,-60.13"/>
    </edge>
    <edge id=":J2_20" function="internal">
        <lane id=":J2_20_0" index="0" speed="10.98" length="21.03" shape="714.65,-60.40 714.20,-60.48 709.42,-63.96 706.50,-69.75 705.43,-77.86"/>
    </edge>
    <edge id=":J2_21" function="internal">
        <lane id=":J2_21_0" index="0" speed="3.65" length="3.23" shape="719.63,-60.13 719.23,-60.93 719.63,-61.73 720.83,-62.53"/>
    </edge>
    <edge id=":J2_5" function="internal">
        <lane id=":J2_5_0" index="0" speed="7.46" length="12.06" shape="715.03,-78.01 715.44,-74.03 716.55,-71.20 718.34,-69.49 720.83,-68.93"/>
    </edge>
    <edge id=":J2_6" function="internal">
        <lane id=":J2_6_0" index="0" speed="13.89" length="33.84" shape="715.03,-78.01 715.22,-44.13"/>
        <lane id=":J2_6_1" index="1" speed="13.89" length="33.84" shape="711.83,-77.96 712.02,-44.15"/>
    </edge>
    <edge id=":J2_8" function="internal">
        <lane id=":J2_8_0" index="0" speed="10.86" length="14.62" shape="708.63,-77.91 707.79,-69.78 704.98,-63.97"/>
    </edge>
    <edge id=":J2_9" function="internal">
        <lane id=":J2_9_0" index="0" speed="3.65" length="2.34" shape="708.63,-77.91 707.85,-76.70 707.05,-76.28"/>
    </edge>
    <edge id=":J2_22" function="internal">
        <lane id=":J2_22_0" index="0" speed="10.86" length="12.74" shape="704.98,-63.97 700.21,-60.49 693.47,-59.34"/>
    </edge>
    <edge id=":J2_23" function="internal">
        <lane id=":J2_23_0" index="0" speed="3.65" length="2.34" shape="707.05,-76.28 706.25,-76.67 705.43,-77.86"/>
    </edge>
    <edge id=":J2_10" function="internal">
        <lane id=":J2_10_0" index="0" speed="6.47" length="9.03" shape="693.49,-72.14 695.95,-72.49 697.69,-73.54 698.72,-75.30 699.03,-77.76"/>
    </edge>
    <edge id=":J2_11" function="internal">
        <lane id=":J2_11_0" index="0" speed="13.89" length="27.60" shape="693.48,-68.94 701.63,-68.43 707.16,-67.32 712.68,-66.22 720.83,-65.73"/>
        <lane id=":J2_11_1" index="1" speed="13.89" length="27.60" shape="693.48,-65.74 701.62,-65.23 707.15,-64.12 712.68,-63.02 720.83,-62.53"/>
    </edge>
    <edge id=":J2_13" function="internal">
        <lane id=":J2_13_0" index="0" speed="10.90" length="6.53" shape="693.47,-62.54 699.91,-61.44"/>
    </edge>
    <edge id=":J2_14" function="internal">
        <lane id=":J2_14_0" index="0" speed="3.65" length="1.44" shape="693.47,-62.54 694.67,-61.74"/>
    </edge>
    <edge id=":J2_24" function="internal">
        <lane id=":J2_24_0" index="0" speed="10.90" length="20.73" shape="699.91,-61.44 700.22,-61.39 705.02,-57.93 707.89,-52.19 708.82,-44.16"/>
    </edge>
    <edge id=":J2_25" function="internal">
        <lane id=":J2_25_0" index="0" speed="3.65" length="3.23" shape="694.67,-61.74 695.07,-60.94 694.67,-60.14 693.47,-59.34"/>
    </edge>
    <edge id=":J2_15" function="internal">
        <lane id=":J2_15_0" index="0" speed="7.34" length="11.81" shape="699.22,-44.20 698.87,-48.02 697.80,-50.75 695.99,-52.39 693.45,-52.94"/>
    </edge>
    <edge id=":J2_16" function="internal">
        <lane id=":J2_16_0" index="0" speed="13.89" length="33.59" shape="699.22,-44.20 699.03,-77.76"/>
        <lane id=":J2_16_1" index="1" speed="13.89" length="33.59" shape="702.42,-44.19 702.23,-77.81"/>
    </edge>
    <edge id=":J2_18" function="internal">
        <lane id=":J2_18_0" index="0" speed="10.89" length="14.18" shape="705.62,-44.17 706.60,-52.20 709.32,-57.66"/>
    </edge>
    <edge id=":J2_19" function="internal">
        <lane id=":J2_19_0" index="0" speed="3.65" length="2.34" shape="705.62,-44.17 706.42,-45.37 707.23,-45.77"/>
    </edge>
    <edge id=":J2_26" function="internal">
        <lane id=":J2_26_0" index="0" speed="10.89" length="12.90" shape="709.32,-57.66 709.46,-57.93 714.20,-61.38 720.83,-62.53"/>
    </edge>
    <edge id=":J2_27" function="internal">
        <lane id=":J2_27_0" index="0" speed="3.65" length="2.34" shape="707.23,-45.77 708.02,-45.36 708.82,-44.16"/>
    </edge>
    <edge id=":J3_0" function="internal">
        <lane id=":J3_0_0" index="0" speed="3.65" length="4.67" shape="-1363.91,-61.22 -1365.11,-62.02 -1365.51,-62.82 -1365.11,-63.62 -1363.91,-64.42"/>
    </edge>
    <edge id=":J4_0" function="internal">
        <lane id=":J4_0_0" index="0" speed="3.65" length="4.67" shape="1674.88,-63.01 1676.08,-62.21 1676.48,-61.41 1676.08,-60.61 1674.88,-59.81"/>
    </edge>
    <edge id=":J5_0" function="internal">
        <lane id=":J5_0_0" index="0" speed="3.65" length="4.67" shape="-651.98,-754.96 -651.18,-756.16 -650.38,-756.56 -649.58,-756.16 -648.78,-754.96"/>
    </edge>
    <edge id=":J6_0" function="internal">
        <lane id=":J6_0_0" index="0" speed="3.65" length="4.67" shape="694.62,-781.36 695.40,-782.57 696.20,-782.98 697.00,-782.59 697.82,-781.40"/>
    </edge>
    <edge id=":J7_0" function="internal">
        <lane id=":J7_0_0" index="0" speed="3.65" length="4.67" shape="-649.93,559.98 -650.73,561.17 -651.54,561.57 -652.33,561.17 -653.13,559.96"/>
    </edge>
    <edge id=":J8_0" function="internal">
        <lane id=":J8_0_0" index="0" speed="3.65" length="4.67" shape="706.24,568.40 705.43,569.59 704.63,569.99 703.83,569.59 703.04,568.38"/>
    </edge>
    <edge id=":J9_0" function="internal">
        <lane id=":J9_0_0" index="0" speed="3.65" length="4.67" shape="-8.29,-734.52 -7.40,-735.64 -6.56,-735.97 -5.80,-735.51 -5.11,-734.24"/>
    </edge>

    <edge id="-E0" from="J1" to="J13" priority="-1">
        <lane id="-E0_0" index="0" speed="13.89" length="478.38" shape="-74.91,-54.34 -553.28,-56.09"/>
        <lane id="-E0_1" index="1" speed="13.89" length="478.38" shape="-74.89,-57.54 -553.27,-59.29"/>
        <lane id="-E0_2" index="2" speed="13.89" length="478.38" shape="-74.88,-60.74 -553.26,-62.49"/>
    </edge>
    <edge id="-E0493" from="J13" to="J0" priority="-1">
        <lane id="-E0493_0" index="0" speed="13.89" length="74.40" shape="-561.29,-52.91 -635.69,-53.18"/>
        <lane id="-E0493_1" index="1" speed="13.89" length="74.40" shape="-561.28,-56.11 -635.68,-56.38"/>
        <lane id="-E0493_2" index="2" speed="13.89" length="74.40" shape="-561.27,-59.31 -635.67,-59.58"/>
        <lane id="-E0493_3" index="3" speed="13.89" length="74.40" shape="-561.26,-62.51 -635.66,-62.78"/>
    </edge>
    <edge id="-E1" from="J2" to="J14" priority="-1">
        <lane id="-E1_0" index="0" speed="13.89" length="111.56" shape="693.45,-52.94 581.90,-53.14"/>
        <lane id="-E1_1" index="1" speed="13.89" length="111.56" shape="693.46,-56.14 581.90,-56.34"/>
        <lane id="-E1_2" index="2" speed="13.89" length="111.56" shape="693.47,-59.34 581.91,-59.54"/>
    </edge>
    <edge id="-E1129" from="J14" to="J1" priority="-1">
        <lane id="-E1129_0" index="0" speed="13.89" length="626.34" shape="573.90,-53.16 -52.45,-54.28"/>
        <lane id="-E1129_1" index="1" speed="13.89" length="626.34" shape="573.90,-56.36 -52.44,-57.48"/>
        <lane id="-E1129_2" index="2" speed="13.89" length="626.34" shape="573.91,-59.56 -52.43,-60.68"/>
    </edge>
    <edge id="-E2" from="J12" to="J3" priority="-1">
        <lane id="-E2_0" index="0" speed="13.89" length="577.53" shape="-786.36,-56.12 -1363.89,-54.82"/>
        <lane id="-E2_1" index="1" speed="13.89" length="577.53" shape="-786.37,-59.32 -1363.90,-58.02"/>
        <lane id="-E2_2" index="2" speed="13.89" length="577.53" shape="-786.38,-62.52 -1363.91,-61.22"/>
    </edge>
    <edge id="-E212" from="J0" to="J12" priority="-1">
        <lane id="-E212_0" index="0" speed="13.89" length="123.47" shape="-662.89,-56.40 -786.36,-56.12"/>
        <lane id="-E212_1" index="1" speed="13.89" length="123.47" shape="-662.90,-59.60 -786.37,-59.32"/>
        <lane id="-E212_2" index="2" speed="13.89" length="123.47" shape="-662.90,-62.80 -786.38,-62.52"/>
    </edge>
    <edge id="-E3" from="J4" to="J15" priority="-1">
        <lane id="-E3_0" index="0" speed="13.89" length="865.76" shape="1674.88,-53.41 809.12,-52.97"/>
        <lane id="-E3_1" index="1" speed="13.89" length="865.76" shape="1674.88,-56.61 809.12,-56.17"/>
        <lane id="-E3_2" index="2" speed="13.89" length="865.76" shape="1674.88,-59.81 809.12,-59.37"/>
    </edge>
    <edge id="-E3869" from="J15" to="J2" priority="-1">
        <lane id="-E3869_0" index="0" speed="13.89" length="80.29" shape="801.13,-49.77 720.84,-49.73"/>
        <lane id="-E3869_1" index="1" speed="13.89" length="80.29" shape="801.12,-52.97 720.83,-52.93"/>
        <lane id="-E3869_2" index="2" speed="13.89" length="80.29" shape="801.12,-56.17 720.83,-56.13"/>
        <lane id="-E3869_3" index="3" speed="13.89" length="80.29" shape="801.12,-59.37 720.83,-59.33"/>
    </edge>
    <edge id="-E4" from="J5" to="J0" priority="-1">
        <lane id="-E4_0" index="0" speed="13.89" length="670.54" shape="-642.38,-754.97 -641.28,-84.44"/>
        <lane id="-E4_1" index="1" speed="13.89" length="670.54" shape="-645.58,-754.97 -644.48,-84.43"/>
        <lane id="-E4_2" index="2" speed="13.89" length="670.54" shape="-648.78,-754.96 -647.68,-84.43"/>
    </edge>
    <edge id="-E5" from="J6" to="J2" priority="-1">
        <lane id="-E5_0" index="0" speed="13.89" length="703.58" shape="704.22,-781.50 715.03,-78.01"/>
        <lane id="-E5_1" index="1" speed="13.89" length="703.58" shape="701.02,-781.45 711.83,-77.96"/>
        <lane id="-E5_2" index="2" speed="13.89" length="703.58" shape="697.82,-781.40 708.63,-77.91"/>
    </edge>
    <edge id="-E6" from="J7" to="J0" priority="-1">
        <lane id="-E6_0" index="0" speed="13.89" length="607.60" shape="-659.53,559.94 -657.31,-47.66"/>
        <lane id="-E6_1" index="1" speed="13.89" length="607.60" shape="-656.33,559.95 -654.11,-47.65"/>
        <lane id="-E6_2" index="2" speed="13.89" length="607.60" shape="-653.13,559.96 -650.91,-47.64"/>
    </edge>
    <edge id="-E7" from="J8" to="J2" priority="-1">
        <lane id="-E7_0" index="0" speed="13.89" length="612.56" shape="696.64,568.36 699.22,-44.20"/>
        <lane id="-E7_1" index="1" speed="13.89" length="612.56" shape="699.84,568.37 702.42,-44.19"/>
        <lane id="-E7_2" index="2" speed="13.89" length="612.56" shape="703.04,568.38 705.62,-44.17"/>
    </edge>
    <edge id="-E8" from="J9" to="J1" priority="-1">
        <lane id="-E8_0" index="0" speed="13.89" length="660.32" shape="-1.92,-733.97 -57.67,-76.01"/>
        <lane id="-E8_1" index="1" speed="13.89" length="660.32" shape="-5.11,-734.24 -60.86,-76.28"/>
    </edge>
    <edge id="-E9" from="J10" to="J1" priority="-1">
        <lane id="-E9_0" index="0" speed="13.89" length="614.73" shape="-123.23,563.79 -69.67,-48.60"/>
        <lane id="-E9_1" index="1" speed="13.89" length="614.73" shape="-120.04,564.07 -66.48,-48.32"/>
    </edge>
    <edge id="E0" from="J0" to="J1" priority="-1">
        <lane id="E0_0" index="0" speed="13.89" length="560.78" shape="-635.62,-72.38 -74.85,-70.34"/>
        <lane id="E0_1" index="1" speed="13.89" length="560.78" shape="-635.63,-69.18 -74.86,-67.14"/>
        <lane id="E0_2" index="2" speed="13.89" length="560.78" shape="-635.64,-65.98 -74.87,-63.94"/>
    </edge>
    <edge id="E1" from="J1" to="J14" priority="-1">
        <lane id="E1_0" index="0" speed="13.89" length="626.34" shape="-52.42,-70.28 573.92,-69.16"/>
        <lane id="E1_1" index="1" speed="13.89" length="626.34" shape="-52.42,-67.08 573.92,-65.96"/>
        <lane id="E1_2" index="2" speed="13.89" length="626.34" shape="-52.43,-63.88 573.91,-62.76"/>
    </edge>
    <edge id="E10" from="J14" to="J2" priority="-1">
        <lane id="E10_0" index="0" speed="13.89" length="111.56" shape="581.93,-72.34 693.49,-72.14"/>
        <lane id="E10_1" index="1" speed="13.89" length="111.56" shape="581.92,-69.14 693.48,-68.94"/>
        <lane id="E10_2" index="2" speed="13.89" length="111.56" shape="581.92,-65.94 693.48,-65.74"/>
        <lane id="E10_3" index="3" speed="13.89" length="111.56" shape="581.91,-62.74 693.47,-62.54"/>
    </edge>
    <edge id="E2" from="J3" to="J11" priority="-1">
        <lane id="E2_0" index="0" speed="13.89" length="573.50" shape="-1363.93,-70.82 -790.43,-72.11"/>
        <lane id="E2_1" index="1" speed="13.89" length="573.50" shape="-1363.92,-67.62 -790.42,-68.91"/>
        <lane id="E2_2" index="2" speed="13.89" length="573.50" shape="-1363.91,-64.42 -790.41,-65.71"/>
    </edge>
    <edge id="E2577" from="J11" to="J0" priority="-1">
        <lane id="E2577_0" index="0" speed="13.89" length="119.50" shape="-782.44,-78.53 -662.94,-78.80"/>
        <lane id="E2577_1" index="1" speed="13.89" length="119.50" shape="-782.44,-75.33 -662.93,-75.60"/>
        <lane id="E2577_2" index="2" speed="13.89" length="119.50" shape="-782.43,-72.13 -662.92,-72.40"/>
        <lane id="E2577_3" index="3" speed="13.89" length="119.50" shape="-782.42,-68.93 -662.92,-69.20"/>
        <lane id="E2577_4" index="4" speed="13.89" length="119.50" shape="-782.41,-65.73 -662.91,-66.00"/>
    </edge>
    <edge id="E3" from="J2" to="J4" priority="-1">
        <lane id="E3_0" index="0" speed="13.89" length="954.05" shape="720.83,-68.93 1674.88,-69.41"/>
        <lane id="E3_1" index="1" speed="13.89" length="954.05" shape="720.83,-65.73 1674.88,-66.21"/>
        <lane id="E3_2" index="2" speed="13.89" length="954.05" shape="720.83,-62.53 1674.88,-63.01"/>
    </edge>
    <edge id="E4" from="J0" to="J5" priority="-1">
        <lane id="E4_0" index="0" speed="13.89" length="670.54" shape="-657.28,-84.41 -658.38,-754.95"/>
        <lane id="E4_1" index="1" speed="13.89" length="670.54" shape="-654.08,-84.42 -655.18,-754.95"/>
        <lane id="E4_2" index="2" speed="13.89" length="670.54" shape="-650.88,-84.42 -651.98,-754.96"/>
    </edge>
    <edge id="E5" from="J2" to="J6" priority="-1">
        <lane id="E5_0" index="0" speed="13.89" length="703.58" shape="699.03,-77.76 688.22,-781.26"/>
        <lane id="E5_1" index="1" speed="13.89" length="703.58" shape="702.23,-77.81 691.42,-781.31"/>
        <lane id="E5_2" index="2" speed="13.89" length="703.58" shape="705.43,-77.86 694.62,-781.36"/>
    </edge>
    <edge id="E6" from="J0" to="J7" priority="-1">
        <lane id="E6_0" index="0" speed="13.89" length="607.60" shape="-641.31,-47.60 -643.53,560.00"/>
        <lane id="E6_1" index="1" speed="13.89" length="607.60" shape="-644.51,-47.61 -646.73,559.99"/>