<additional>
    <laneData id="E3_1" file="eE3_1.xml" freq="300" excludeEmpty="true"/>
</additional>