<?xml version="1.0" encoding="UTF-8"?>

<!-- generated on 2024-09-12 17:14:47 by Eclipse SUMO netedit Version 1.20.0
<configuration xmlns:xsi="http://www.w3.org/2001/XMLSchema-instance" xsi:noNamespaceSchemaLocation="http://sumo.dlr.de/xsd/neteditConfiguration.xsd">

    <input>
        <sumo-net-file value="C:\Users\26521\Desktop\新算法\9_nodes1.net.xml"/>
    </input>

    <output>
        <tls-file value="C:\Users\26521\Desktop\新算法\TLS_9_NODES.tll.xml"/>
        <output-file value="C:\Users\26521\Desktop\新算法\9_nodes1.net.xml"/>
    </output>

    <processing>
        <geometry.min-radius.fix.railways value="false"/>
        <geometry.max-grade.fix value="false"/>
        <offset.disable-normalization value="true"/>
        <lefthand value="0"/>
    </processing>

    <junctions>
        <no-turnarounds value="true"/>
        <junctions.corner-detail value="5"/>
        <junctions.limit-turn-speed value="5.50"/>
        <rectangular-lane-cut value="0"/>
    </junctions>

    <pedestrian>
        <walkingareas value="0"/>
    </pedestrian>

</configuration>
-->

<net version="1.20" junctionCornerDetail="5" limitTurnSpeed="5.50" xmlns:xsi="http://www.w3.org/2001/XMLSchema-instance" xsi:noNamespaceSchemaLocation="http://sumo.dlr.de/xsd/net_file.xsd">

    <location netOffset="0.00,0.00" convBoundary="-800.00,-500.00,3200.00,100.00" origBoundary="-10000000000.00,-10000000000.00,10000000000.00,10000000000.00" projParameter="!"/>

    <edge id=":BEIHUAN_0" function="internal">
        <lane id=":BEIHUAN_0_0" index="0" speed="6.51" length="9.03" shape="-8.00,-180.00 -8.35,-182.45 -9.40,-184.20 -11.15,-185.25 -13.60,-185.60"/>
        <lane id=":BEIHUAN_0_1" index="1" speed="7.33" length="11.73" shape="-8.00,-180.00 -8.35,-183.85 -9.40,-186.60 -11.15,-188.25 -13.60,-188.80"/>
    </edge>
    <edge id=":BEIHUAN_2" function="internal">
        <lane id=":BEIHUAN_2_0" index="0" speed="13.89" length="40.00" shape="-8.00,-180.00 -8.00,-220.00"/>
        <lane id=":BEIHUAN_2_1" index="1" speed="13.89" length="40.00" shape="-4.80,-180.00 -4.80,-220.00"/>
        <lane id=":BEIHUAN_2_2" index="2" speed="13.89" length="40.00" shape="-1.60,-180.00 -1.60,-220.00"/>
    </edge>
    <edge id=":BEIHUAN_5" function="internal">
        <lane id=":BEIHUAN_5_0" index="0" speed="11.89" length="8.06" shape="-1.60,-180.00 -0.90,-188.03"/>
        <lane id=":BEIHUAN_5_1" index="1" speed="11.39" length="7.04" shape="-1.60,-180.00 -0.90,-187.01"/>
    </edge>
    <edge id=":BEIHUAN_28" function="internal">
        <lane id=":BEIHUAN_28_0" index="0" speed="11.89" length="24.56" shape="-0.90,-188.03 -0.65,-190.85 2.20,-198.60 6.95,-203.25 13.60,-204.80"/>
    </edge>
    <edge id=":BEIHUAN_29" function="internal">
        <lane id=":BEIHUAN_29_0" index="0" speed="11.39" length="22.81" shape="-0.90,-187.01 -0.65,-189.45 2.20,-196.20 6.95,-200.25 13.60,-201.60"/>
    </edge>
    <edge id=":BEIHUAN_7" function="internal">
        <lane id=":BEIHUAN_7_0" index="0" speed="6.51" length="9.03" shape="13.60,-185.60 11.15,-185.25 9.40,-184.20 8.35,-182.45 8.00,-180.00"/>
    </edge>
    <edge id=":BEIHUAN_8" function="internal">
        <lane id=":BEIHUAN_8_0" index="0" speed="13.89" length="27.20" shape="13.60,-185.60 -13.60,-185.60"/>
        <lane id=":BEIHUAN_8_1" index="1" speed="13.89" length="27.20" shape="13.60,-188.80 -13.60,-188.80"/>
        <lane id=":BEIHUAN_8_2" index="2" speed="13.89" length="27.20" shape="13.60,-192.00 -13.60,-192.00"/>
        <lane id=":BEIHUAN_8_3" index="3" speed="13.89" length="27.20" shape="13.60,-195.20 -13.60,-195.20"/>
        <lane id=":BEIHUAN_8_4" index="4" speed="13.89" length="27.20" shape="13.60,-198.40 -13.60,-198.40"/>
    </edge>
    <edge id=":BEIHUAN_13" function="internal">
        <lane id=":BEIHUAN_13_0" index="0" speed="11.39" length="3.61" shape="13.60,-198.40 10.06,-199.12"/>
    </edge>
    <edge id=":BEIHUAN_30" function="internal">
        <lane id=":BEIHUAN_30_0" index="0" speed="11.39" length="26.24" shape="10.06,-199.12 6.95,-199.75 2.20,-203.80 -0.65,-210.55 -1.60,-220.00"/>
    </edge>
    <edge id=":BEIHUAN_14" function="internal">
        <lane id=":BEIHUAN_14_0" index="0" speed="6.51" length="9.03" shape="8.00,-220.00 8.35,-217.55 9.40,-215.80 11.15,-214.75 13.60,-214.40"/>
        <lane id=":BEIHUAN_14_1" index="1" speed="7.33" length="11.73" shape="8.00,-220.00 8.35,-216.15 9.40,-213.40 11.15,-211.75 13.60,-211.20"/>
    </edge>
    <edge id=":BEIHUAN_16" function="internal">
        <lane id=":BEIHUAN_16_0" index="0" speed="13.89" length="40.00" shape="8.00,-220.00 8.00,-180.00"/>
        <lane id=":BEIHUAN_16_1" index="1" speed="13.89" length="40.00" shape="4.80,-220.00 4.80,-180.00"/>
        <lane id=":BEIHUAN_16_2" index="2" speed="13.89" length="40.00" shape="1.60,-220.00 1.60,-180.00"/>
    </edge>
    <edge id=":BEIHUAN_19" function="internal">
        <lane id=":BEIHUAN_19_0" index="0" speed="11.89" length="8.06" shape="1.60,-220.00 0.90,-211.97"/>
        <lane id=":BEIHUAN_19_1" index="1" speed="11.39" length="7.04" shape="1.60,-220.00 0.90,-212.99"/>
    </edge>
    <edge id=":BEIHUAN_31" function="internal">
        <lane id=":BEIHUAN_31_0" index="0" speed="11.89" length="24.56" shape="0.90,-211.97 0.65,-209.15 -2.20,-201.40 -6.95,-196.75 -13.60,-195.20"/>
    </edge>
    <edge id=":BEIHUAN_32" function="internal">
        <lane id=":BEIHUAN_32_0" index="0" speed="11.39" length="22.81" shape="0.90,-212.99 0.65,-210.55 -2.20,-203.80 -6.95,-199.75 -13.60,-198.40"/>
    </edge>
    <edge id=":BEIHUAN_21" function="internal">
        <lane id=":BEIHUAN_21_0" index="0" speed="6.51" length="9.03" shape="-13.60,-214.40 -11.15,-214.75 -9.40,-215.80 -8.35,-217.55 -8.00,-220.00"/>
    </edge>
    <edge id=":BEIHUAN_22" function="internal">
        <lane id=":BEIHUAN_22_0" index="0" speed="13.89" length="27.20" shape="-13.60,-214.40 13.60,-214.40"/>
        <lane id=":BEIHUAN_22_1" index="1" speed="13.89" length="27.20" shape="-13.60,-211.20 13.60,-211.20"/>
        <lane id=":BEIHUAN_22_2" index="2" speed="13.89" length="27.20" shape="-13.60,-208.00 13.60,-208.00"/>
        <lane id=":BEIHUAN_22_3" index="3" speed="13.89" length="27.20" shape="-13.60,-204.80 13.60,-204.80"/>
        <lane id=":BEIHUAN_22_4" index="4" speed="13.89" length="27.20" shape="-13.60,-201.60 13.60,-201.60"/>
    </edge>
    <edge id=":BEIHUAN_27" function="internal">
        <lane id=":BEIHUAN_27_0" index="0" speed="11.39" length="29.85" shape="-13.60,-201.60 -6.95,-200.25 -2.20,-196.20 0.65,-189.45 1.60,-180.00"/>
    </edge>
    <edge id=":JINXIU_0" function="internal">
        <lane id=":JINXIU_0_0" index="0" speed="6.51" length="9.03" shape="2792.00,-180.00 2791.65,-182.45 2790.60,-184.20 2788.85,-185.25 2786.40,-185.60"/>
        <lane id=":JINXIU_0_1" index="1" speed="7.33" length="11.73" shape="2792.00,-180.00 2791.65,-183.85 2790.60,-186.60 2788.85,-188.25 2786.40,-188.80"/>
    </edge>
    <edge id=":JINXIU_2" function="internal">
        <lane id=":JINXIU_2_0" index="0" speed="13.89" length="40.00" shape="2792.00,-180.00 2792.00,-220.00"/>
        <lane id=":JINXIU_2_1" index="1" speed="13.89" length="40.00" shape="2795.20,-180.00 2795.20,-220.00"/>
        <lane id=":JINXIU_2_2" index="2" speed="13.89" length="40.00" shape="2798.40,-180.00 2798.40,-220.00"/>
    </edge>
    <edge id=":JINXIU_5" function="internal">
        <lane id=":JINXIU_5_0" index="0" speed="11.89" length="8.06" shape="2798.40,-180.00 2799.10,-188.03"/>
        <lane id=":JINXIU_5_1" index="1" speed="11.39" length="7.04" shape="2798.40,-180.00 2799.10,-187.01"/>
    </edge>
    <edge id=":JINXIU_28" function="internal">
        <lane id=":JINXIU_28_0" index="0" speed="11.89" length="24.56" shape="2799.10,-188.03 2799.35,-190.85 2802.20,-198.60 2806.95,-203.25 2813.60,-204.80"/>
    </edge>
    <edge id=":JINXIU_29" function="internal">
        <lane id=":JINXIU_29_0" index="0" speed="11.39" length="22.81" shape="2799.10,-187.01 2799.35,-189.45 2802.20,-196.20 2806.95,-200.25 2813.60,-201.60"/>
    </edge>
    <edge id=":JINXIU_7" function="internal">
        <lane id=":JINXIU_7_0" index="0" speed="6.51" length="9.03" shape="2813.60,-185.60 2811.15,-185.25 2809.40,-184.20 2808.35,-182.45 2808.00,-180.00"/>
    </edge>
    <edge id=":JINXIU_8" function="internal">
        <lane id=":JINXIU_8_0" index="0" speed="13.89" length="27.20" shape="2813.60,-185.60 2786.40,-185.60"/>
        <lane id=":JINXIU_8_1" index="1" speed="13.89" length="27.20" shape="2813.60,-188.80 2786.40,-188.80"/>
        <lane id=":JINXIU_8_2" index="2" speed="13.89" length="27.20" shape="2813.60,-192.00 2786.40,-192.00"/>
        <lane id=":JINXIU_8_3" index="3" speed="13.89" length="27.20" shape="2813.60,-195.20 2786.40,-195.20"/>
        <lane id=":JINXIU_8_4" index="4" speed="13.89" length="27.20" shape="2813.60,-198.40 2786.40,-198.40"/>
    </edge>
    <edge id=":JINXIU_13" function="internal">
        <lane id=":JINXIU_13_0" index="0" speed="11.39" length="3.61" shape="2813.60,-198.40 2810.06,-199.12"/>
    </edge>
    <edge id=":JINXIU_30" function="internal">
        <lane id=":JINXIU_30_0" index="0" speed="11.39" length="26.24" shape="2810.06,-199.12 2806.95,-199.75 2802.20,-203.80 2799.35,-210.55 2798.40,-220.00"/>
    </edge>
    <edge id=":JINXIU_14" function="internal">
        <lane id=":JINXIU_14_0" index="0" speed="6.51" length="9.03" shape="2808.00,-220.00 2808.35,-217.55 2809.40,-215.80 2811.15,-214.75 2813.60,-214.40"/>
        <lane id=":JINXIU_14_1" index="1" speed="7.33" length="11.73" shape="2808.00,-220.00 2808.35,-216.15 2809.40,-213.40 2811.15,-211.75 2813.60,-211.20"/>
    </edge>
    <edge id=":JINXIU_16" function="internal">
        <lane id=":JINXIU_16_0" index="0" speed="13.89" length="40.00" shape="2808.00,-220.00 2808.00,-180.00"/>
        <lane id=":JINXIU_16_1" index="1" speed="13.89" length="40.00" shape="2804.80,-220.00 2804.80,-180.00"/>
        <lane id=":JINXIU_16_2" index="2" speed="13.89" length="40.00" shape="2801.60,-220.00 2801.60,-180.00"/>
    </edge>
    <edge id=":JINXIU_19" function="internal">
        <lane id=":JINXIU_19_0" index="0" speed="11.89" length="8.06" shape="2801.60,-220.00 2800.90,-211.97"/>
        <lane id=":JINXIU_19_1" index="1" speed="11.39" length="7.04" shape="2801.60,-220.00 2800.90,-212.99"/>
    </edge>
    <edge id=":JINXIU_31" function="internal">
        <lane id=":JINXIU_31_0" index="0" speed="11.89" length="24.56" shape="2800.90,-211.97 2800.65,-209.15 2797.80,-201.40 2793.05,-196.75 2786.40,-195.20"/>
    </edge>
    <edge id=":JINXIU_32" function="internal">
        <lane id=":JINXIU_32_0" index="0" speed="11.39" length="22.81" shape="2800.90,-212.99 2800.65,-210.55 2797.80,-203.80 2793.05,-199.75 2786.40,-198.40"/>
    </edge>
    <edge id=":JINXIU_21" function="internal">
        <lane id=":JINXIU_21_0" index="0" speed="6.51" length="9.03" shape="2786.40,-214.40 2788.85,-214.75 2790.60,-215.80 2791.65,-217.55 2792.00,-220.00"/>
    </edge>
    <edge id=":JINXIU_22" function="internal">
        <lane id=":JINXIU_22_0" index="0" speed="13.89" length="27.20" shape="2786.40,-214.40 2813.60,-214.40"/>
        <lane id=":JINXIU_22_1" index="1" speed="13.89" length="27.20" shape="2786.40,-211.20 2813.60,-211.20"/>
        <lane id=":JINXIU_22_2" index="2" speed="13.89" length="27.20" shape="2786.40,-208.00 2813.60,-208.00"/>
        <lane id=":JINXIU_22_3" index="3" speed="13.89" length="27.20" shape="2786.40,-204.80 2813.60,-204.80"/>
        <lane id=":JINXIU_22_4" index="4" speed="13.89" length="27.20" shape="2786.40,-201.60 2813.60,-201.60"/>
    </edge>
    <edge id=":JINXIU_27" function="internal">
        <lane id=":JINXIU_27_0" index="0" speed="11.39" length="3.61" shape="2786.40,-201.60 2789.94,-200.88"/>
    </edge>
    <edge id=":JINXIU_33" function="internal">
        <lane id=":JINXIU_33_0" index="0" speed="11.39" length="26.24" shape="2789.94,-200.88 2793.05,-200.25 2797.80,-196.20 2800.65,-189.45 2801.60,-180.00"/>
    </edge>
    <edge id=":LONGQINJIE_0" function="internal">
        <lane id=":LONGQINJIE_0_0" index="0" speed="6.51" length="9.03" shape="792.00,-180.00 791.65,-182.45 790.60,-184.20 788.85,-185.25 786.40,-185.60"/>
        <lane id=":LONGQINJIE_0_1" index="1" speed="7.33" length="11.73" shape="792.00,-180.00 791.65,-183.85 790.60,-186.60 788.85,-188.25 786.40,-188.80"/>
    </edge>
    <edge id=":LONGQINJIE_2" function="internal">
        <lane id=":LONGQINJIE_2_0" index="0" speed="13.89" length="40.00" shape="792.00,-180.00 792.00,-220.00"/>
        <lane id=":LONGQINJIE_2_1" index="1" speed="13.89" length="40.00" shape="795.20,-180.00 795.20,-220.00"/>
        <lane id=":LONGQINJIE_2_2" index="2" speed="13.89" length="40.00" shape="798.40,-180.00 798.40,-220.00"/>
    </edge>
    <edge id=":LONGQINJIE_5" function="internal">
        <lane id=":LONGQINJIE_5_0" index="0" speed="11.89" length="8.06" shape="798.40,-180.00 799.10,-188.03"/>
        <lane id=":LONGQINJIE_5_1" index="1" speed="11.39" length="7.04" shape="798.40,-180.00 799.10,-187.01"/>
    </edge>
    <edge id=":LONGQINJIE_28" function="internal">
        <lane id=":LONGQINJIE_28_0" index="0" speed="11.89" length="24.56" shape="799.10,-188.03 799.35,-190.85 802.20,-198.60 806.95,-203.25 813.60,-204.80"/>
    </edge>
    <edge id=":LONGQINJIE_29" function="internal">
        <lane id=":LONGQINJIE_29_0" index="0" speed="11.39" length="22.81" shape="799.10,-187.01 799.35,-189.45 802.20,-196.20 806.95,-200.25 813.60,-201.60"/>
    </edge>
    <edge id=":LONGQINJIE_7" function="internal">
        <lane id=":LONGQINJIE_7_0" index="0" speed="6.51" length="9.03" shape="813.60,-185.60 811.15,-185.25 809.40,-184.20 808.35,-182.45 808.00,-180.00"/>
    </edge>
    <edge id=":LONGQINJIE_8" function="internal">
        <lane id=":LONGQINJIE_8_0" index="0" speed="13.89" length="27.20" shape="813.60,-185.60 786.40,-185.60"/>
        <lane id=":LONGQINJIE_8_1" index="1" speed="13.89" length="27.20" shape="813.60,-188.80 786.40,-188.80"/>
        <lane id=":LONGQINJIE_8_2" index="2" speed="13.89" length="27.20" shape="813.60,-192.00 786.40,-192.00"/>
        <lane id=":LONGQINJIE_8_3" index="3" speed="13.89" length="27.20" shape="813.60,-195.20 786.40,-195.20"/>
        <lane id=":LONGQINJIE_8_4" index="4" speed="13.89" length="27.20" shape="813.60,-198.40 786.40,-198.40"/>
    </edge>
    <edge id=":LONGQINJIE_13" function="internal">
        <lane id=":LONGQINJIE_13_0" index="0" speed="11.39" length="3.61" shape="813.60,-198.40 810.06,-199.12"/>
    </edge>
    <edge id=":LONGQINJIE_30" function="internal">
        <lane id=":LONGQINJIE_30_0" index="0" speed="11.39" length="26.24" shape="810.06,-199.12 806.95,-199.75 802.20,-203.80 799.35,-210.55 798.40,-220.00"/>
    </edge>
    <edge id=":LONGQINJIE_14" function="internal">
        <lane id=":LONGQINJIE_14_0" index="0" speed="6.51" length="9.03" shape="808.00,-220.00 808.35,-217.55 809.40,-215.80 811.15,-214.75 813.60,-214.40"/>
        <lane id=":LONGQINJIE_14_1" index="1" speed="7.33" length="11.73" shape="808.00,-220.00 808.35,-216.15 809.40,-213.40 811.15,-211.75 813.60,-211.20"/>
    </edge>
    <edge id=":LONGQINJIE_16" function="internal">
        <lane id=":LONGQINJIE_16_0" index="0" speed="13.89" length="40.00" shape="808.00,-220.00 808.00,-180.00"/>
        <lane id=":LONGQINJIE_16_1" index="1" speed="13.89" length="40.00" shape="804.80,-220.00 804.80,-180.00"/>
        <lane id=":LONGQINJIE_16_2" index="2" speed="13.89" length="40.00" shape="801.60,-220.00 801.60,-180.00"/>
    </edge>
    <edge id=":LONGQINJIE_19" function="internal">
        <lane id=":LONGQINJIE_19_0" index="0" speed="11.89" length="8.06" shape="801.60,-220.00 800.90,-211.97"/>
        <lane id=":LONGQINJIE_19_1" index="1" speed="11.39" length="7.04" shape="801.60,-220.00 800.90,-212.99"/>
    </edge>
    <edge id=":LONGQINJIE_31" function="internal">
        <lane id=":LONGQINJIE_31_0" index="0" speed="11.89" length="24.56" shape="800.90,-211.97 800.65,-209.15 797.80,-201.40 793.05,-196.75 786.40,-195.20"/>
    </edge>
    <edge id=":LONGQINJIE_32" function="internal">
        <lane id=":LONGQINJIE_32_0" index="0" speed="11.39" length="22.81" shape="800.90,-212.99 800.65,-210.55 797.80,-203.80 793.05,-199.75 786.40,-198.40"/>
    </edge>
    <edge id=":LONGQINJIE_21" function="internal">
        <lane id=":LONGQINJIE_21_0" index="0" speed="6.51" length="9.03" shape="786.40,-214.40 788.85,-214.75 790.60,-215.80 791.65,-217.55 792.00,-220.00"/>
    </edge>
    <edge id=":LONGQINJIE_22" function="internal">
        <lane id=":LONGQINJIE_22_0" index="0" speed="13.89" length="27.20" shape="786.40,-214.40 813.60,-214.40"/>
        <lane id=":LONGQINJIE_22_1" index="1" speed="13.89" length="27.20" shape="786.40,-211.20 813.60,-211.20"/>
        <lane id=":LONGQINJIE_22_2" index="2" speed="13.89" length="27.20" shape="786.40,-208.00 813.60,-208.00"/>
        <lane id=":LONGQINJIE_22_3" index="3" speed="13.89" length="27.20" shape="786.40,-204.80 813.60,-204.80"/>
        <lane id=":LONGQINJIE_22_4" index="4" speed="13.89" length="27.20" shape="786.40,-201.60 813.60,-201.60"/>
    </edge>
    <edge id=":LONGQINJIE_27" function="internal">
        <lane id=":LONGQINJIE_27_0" index="0" speed="11.39" length="3.61" shape="786.40,-201.60 789.94,-200.88"/>
    </edge>
    <edge id=":LONGQINJIE_33" function="internal">
        <lane id=":LONGQINJIE_33_0" index="0" speed="11.39" length="26.24" shape="789.94,-200.88 793.05,-200.25 797.80,-196.20 800.65,-189.45 801.60,-180.00"/>
    </edge>
    <edge id=":RONGHUAWENHUAYUAN_0" function="internal">
        <lane id=":RONGHUAWENHUAYUAN_0_0" index="0" speed="7.33" length="11.73" shape="-408.00,-180.00 -408.35,-183.85 -409.40,-186.60 -411.15,-188.25 -413.60,-188.80"/>
    </edge>
    <edge id=":RONGHUAWENHUAYUAN_1" function="internal">
        <lane id=":RONGHUAWENHUAYUAN_1_0" index="0" speed="13.89" length="40.04" shape="-408.00,-180.00 -408.00,-220.00"/>
        <lane id=":RONGHUAWENHUAYUAN_1_1" index="1" speed="13.89" length="40.04" shape="-404.80,-180.00 -404.80,-220.00"/>
        <lane id=":RONGHUAWENHUAYUAN_1_2" index="2" speed="13.89" length="40.04" shape="-404.80,-180.00 -401.60,-220.00"/>
    </edge>
    <edge id=":RONGHUAWENHUAYUAN_4" function="internal">
        <lane id=":RONGHUAWENHUAYUAN_4_0" index="0" speed="12.30" length="17.58" shape="-404.80,-180.00 -403.65,-190.85 -400.94,-196.94"/>
        <lane id=":RONGHUAWENHUAYUAN_4_1" index="1" speed="11.39" length="7.04" shape="-401.60,-180.00 -400.90,-187.01"/>
    </edge>
    <edge id=":RONGHUAWENHUAYUAN_27" function="internal">
        <lane id=":RONGHUAWENHUAYUAN_27_0" index="0" speed="12.30" length="17.41" shape="-400.94,-196.94 -400.20,-198.60 -394.45,-203.25 -386.40,-204.80"/>
    </edge>
    <edge id=":RONGHUAWENHUAYUAN_28" function="internal">
        <lane id=":RONGHUAWENHUAYUAN_28_0" index="0" speed="11.39" length="22.81" shape="-400.90,-187.01 -400.65,-189.45 -397.80,-196.20 -393.05,-200.25 -386.40,-201.60"/>
    </edge>
    <edge id=":RONGHUAWENHUAYUAN_6" function="internal">
        <lane id=":RONGHUAWENHUAYUAN_6_0" index="0" speed="6.51" length="9.03" shape="-386.40,-185.60 -388.85,-185.25 -390.60,-184.20 -391.65,-182.45 -392.00,-180.00"/>
    </edge>
    <edge id=":RONGHUAWENHUAYUAN_7" function="internal">
        <lane id=":RONGHUAWENHUAYUAN_7_0" index="0" speed="13.89" length="27.45" shape="-386.40,-185.60 -394.50,-186.10 -400.00,-187.20 -405.50,-188.30 -413.60,-188.80"/>
        <lane id=":RONGHUAWENHUAYUAN_7_1" index="1" speed="13.89" length="27.45" shape="-386.40,-188.80 -394.50,-189.30 -400.00,-190.40 -405.50,-191.50 -413.60,-192.00"/>
        <lane id=":RONGHUAWENHUAYUAN_7_2" index="2" speed="13.89" length="27.45" shape="-386.40,-192.00 -394.50,-192.50 -400.00,-193.60 -405.50,-194.70 -413.60,-195.20"/>
        <lane id=":RONGHUAWENHUAYUAN_7_3" index="3" speed="13.89" length="27.45" shape="-386.40,-195.20 -394.50,-195.70 -400.00,-196.80 -405.50,-197.90 -413.60,-198.40"/>
    </edge>
    <edge id=":RONGHUAWENHUAYUAN_11" function="internal">
        <lane id=":RONGHUAWENHUAYUAN_11_0" index="0" speed="12.30" length="11.80" shape="-386.40,-195.20 -394.45,-196.75 -397.25,-199.02"/>
        <lane id=":RONGHUAWENHUAYUAN_11_1" index="1" speed="11.39" length="3.61" shape="-386.40,-198.40 -389.94,-199.12"/>
    </edge>
    <edge id=":RONGHUAWENHUAYUAN_29" function="internal">
        <lane id=":RONGHUAWENHUAYUAN_29_0" index="0" speed="12.30" length="23.18" shape="-397.25,-199.02 -400.20,-201.40 -403.65,-209.15 -404.80,-220.00"/>
    </edge>
    <edge id=":RONGHUAWENHUAYUAN_30" function="internal">
        <lane id=":RONGHUAWENHUAYUAN_30_0" index="0" speed="11.39" length="26.24" shape="-389.94,-199.12 -393.05,-199.75 -397.80,-203.80 -400.65,-210.55 -401.60,-220.00"/>
    </edge>
    <edge id=":RONGHUAWENHUAYUAN_13" function="internal">
        <lane id=":RONGHUAWENHUAYUAN_13_0" index="0" speed="6.51" length="9.03" shape="-392.00,-220.00 -391.65,-217.55 -390.60,-215.80 -388.85,-214.75 -386.40,-214.40"/>
        <lane id=":RONGHUAWENHUAYUAN_13_1" index="1" speed="8.00" length="14.19" shape="-395.20,-220.00 -394.65,-216.15 -393.00,-213.40 -390.25,-211.75 -386.40,-211.20"/>
        <lane id=":RONGHUAWENHUAYUAN_13_2" index="2" speed="8.67" length="16.85" shape="-395.20,-220.00 -394.65,-214.75 -393.00,-211.00 -390.25,-208.75 -386.40,-208.00"/>
    </edge>
    <edge id=":RONGHUAWENHUAYUAN_16" function="internal">
        <lane id=":RONGHUAWENHUAYUAN_16_0" index="0" speed="13.89" length="40.09" shape="-395.20,-220.00 -392.00,-180.00"/>
        <lane id=":RONGHUAWENHUAYUAN_16_1" index="1" speed="13.89" length="40.09" shape="-398.40,-220.00 -395.20,-180.00"/>
        <lane id=":RONGHUAWENHUAYUAN_16_2" index="2" speed="13.89" length="40.09" shape="-398.40,-220.00 -398.40,-180.00"/>
    </edge>
    <edge id=":RONGHUAWENHUAYUAN_19" function="internal">
        <lane id=":RONGHUAWENHUAYUAN_19_0" index="0" speed="11.39" length="10.95" shape="-398.40,-220.00 -399.35,-210.55 -399.92,-209.21"/>
    </edge>
    <edge id=":RONGHUAWENHUAYUAN_31" function="internal">
        <lane id=":RONGHUAWENHUAYUAN_31_0" index="0" speed="11.39" length="18.90" shape="-399.92,-209.21 -402.20,-203.80 -406.95,-199.75 -413.60,-198.40"/>
    </edge>
    <edge id=":RONGHUAWENHUAYUAN_20" function="internal">
        <lane id=":RONGHUAWENHUAYUAN_20_0" index="0" speed="6.51" length="9.03" shape="-413.60,-214.40 -411.15,-214.75 -409.40,-215.80 -408.35,-217.55 -408.00,-220.00"/>
    </edge>
    <edge id=":RONGHUAWENHUAYUAN_21" function="internal">
        <lane id=":RONGHUAWENHUAYUAN_21_0" index="0" speed="13.89" length="27.20" shape="-413.60,-214.40 -386.40,-214.40"/>
        <lane id=":RONGHUAWENHUAYUAN_21_1" index="1" speed="13.89" length="27.20" shape="-413.60,-211.20 -386.40,-211.20"/>
        <lane id=":RONGHUAWENHUAYUAN_21_2" index="2" speed="13.89" length="27.20" shape="-413.60,-208.00 -386.40,-208.00"/>
        <lane id=":RONGHUAWENHUAYUAN_21_3" index="3" speed="13.89" length="27.20" shape="-413.60,-204.80 -386.40,-204.80"/>
        <lane id=":RONGHUAWENHUAYUAN_21_4" index="4" speed="13.89" length="27.20" shape="-413.60,-201.60 -386.40,-201.60"/>
    </edge>
    <edge id=":RONGHUAWENHUAYUAN_26" function="internal">
        <lane id=":RONGHUAWENHUAYUAN_26_0" index="0" speed="11.39" length="5.08" shape="-413.60,-201.60 -408.62,-200.59"/>
    </edge>
    <edge id=":RONGHUAWENHUAYUAN_32" function="internal">
        <lane id=":RONGHUAWENHUAYUAN_32_0" index="0" speed="11.39" length="24.77" shape="-408.62,-200.59 -406.95,-200.25 -402.20,-196.20 -399.35,-189.45 -398.40,-180.00"/>
    </edge>
    <edge id=":RONGJING_0" function="internal">
        <lane id=":RONGJING_0_0" index="0" speed="6.51" length="9.03" shape="1592.00,-180.00 1591.65,-182.45 1590.60,-184.20 1588.85,-185.25 1586.40,-185.60"/>
        <lane id=":RONGJING_0_1" index="1" speed="7.33" length="11.73" shape="1592.00,-180.00 1591.65,-183.85 1590.60,-186.60 1588.85,-188.25 1586.40,-188.80"/>
    </edge>
    <edge id=":RONGJING_2" function="internal">
        <lane id=":RONGJING_2_0" index="0" speed="13.89" length="40.00" shape="1592.00,-180.00 1592.00,-220.00"/>
        <lane id=":RONGJING_2_1" index="1" speed="13.89" length="40.00" shape="1595.20,-180.00 1595.20,-220.00"/>
        <lane id=":RONGJING_2_2" index="2" speed="13.89" length="40.00" shape="1598.40,-180.00 1598.40,-220.00"/>
    </edge>
    <edge id=":RONGJING_5" function="internal">
        <lane id=":RONGJING_5_0" index="0" speed="11.89" length="8.06" shape="1598.40,-180.00 1599.10,-188.03"/>
        <lane id=":RONGJING_5_1" index="1" speed="11.39" length="7.04" shape="1598.40,-180.00 1599.10,-187.01"/>
    </edge>
    <edge id=":RONGJING_28" function="internal">
        <lane id=":RONGJING_28_0" index="0" speed="11.89" length="24.56" shape="1599.10,-188.03 1599.35,-190.85 1602.20,-198.60 1606.95,-203.25 1613.60,-204.80"/>
    </edge>
    <edge id=":RONGJING_29" function="internal">
        <lane id=":RONGJING_29_0" index="0" speed="11.39" length="22.81" shape="1599.10,-187.01 1599.35,-189.45 1602.20,-196.20 1606.95,-200.25 1613.60,-201.60"/>
    </edge>
    <edge id=":RONGJING_7" function="internal">
        <lane id=":RONGJING_7_0" index="0" speed="6.51" length="9.03" shape="1613.60,-185.60 1611.15,-185.25 1609.40,-184.20 1608.35,-182.45 1608.00,-180.00"/>
    </edge>
    <edge id=":RONGJING_8" function="internal">
        <lane id=":RONGJING_8_0" index="0" speed="13.89" length="27.20" shape="1613.60,-185.60 1586.40,-185.60"/>
        <lane id=":RONGJING_8_1" index="1" speed="13.89" length="27.20" shape="1613.60,-188.80 1586.40,-188.80"/>
        <lane id=":RONGJING_8_2" index="2" speed="13.89" length="27.20" shape="1613.60,-192.00 1586.40,-192.00"/>
        <lane id=":RONGJING_8_3" index="3" speed="13.89" length="27.20" shape="1613.60,-195.20 1586.40,-195.20"/>
        <lane id=":RONGJING_8_4" index="4" speed="13.89" length="27.20" shape="1613.60,-198.40 1586.40,-198.40"/>
    </edge>
    <edge id=":RONGJING_13" function="internal">
        <lane id=":RONGJING_13_0" index="0" speed="11.39" length="3.61" shape="1613.60,-198.40 1610.06,-199.12"/>
    </edge>
    <edge id=":RONGJING_30" function="internal">
        <lane id=":RONGJING_30_0" index="0" speed="11.39" length="26.24" shape="1610.06,-199.12 1606.95,-199.75 1602.20,-203.80 1599.35,-210.55 1598.40,-220.00"/>
    </edge>
    <edge id=":RONGJING_14" function="internal">
        <lane id=":RONGJING_14_0" index="0" speed="6.51" length="9.03" shape="1608.00,-220.00 1608.35,-217.55 1609.40,-215.80 1611.15,-214.75 1613.60,-214.40"/>
        <lane id=":RONGJING_14_1" index="1" speed="7.33" length="11.73" shape="1608.00,-220.00 1608.35,-216.15 1609.40,-213.40 1611.15,-211.75 1613.60,-211.20"/>
    </edge>
    <edge id=":RONGJING_16" function="internal">
        <lane id=":RONGJING_16_0" index="0" speed="13.89" length="40.00" shape="1608.00,-220.00 1608.00,-180.00"/>
        <lane id=":RONGJING_16_1" index="1" speed="13.89" length="40.00" shape="1604.80,-220.00 1604.80,-180.00"/>
        <lane id=":RONGJING_16_2" index="2" speed="13.89" length="40.00" shape="1601.60,-220.00 1601.60,-180.00"/>
    </edge>
    <edge id=":RONGJING_19" function="internal">
        <lane id=":RONGJING_19_0" index="0" speed="11.89" length="8.06" shape="1601.60,-220.00 1600.90,-211.97"/>
        <lane id=":RONGJING_19_1" index="1" speed="11.39" length="7.04" shape="1601.60,-220.00 1600.90,-212.99"/>
    </edge>
    <edge id=":RONGJING_31" function="internal">
        <lane id=":RONGJING_31_0" index="0" speed="11.89" length="24.56" shape="1600.90,-211.97 1600.65,-209.15 1597.80,-201.40 1593.05,-196.75 1586.40,-195.20"/>
    </edge>
    <edge id=":RONGJING_32" function="internal">
        <lane id=":RONGJING_32_0" index="0" speed="11.39" length="22.81" shape="1600.90,-212.99 1600.65,-210.55 1597.80,-203.80 1593.05,-199.75 1586.40,-198.40"/>
    </edge>
    <edge id=":RONGJING_21" function="internal">
        <lane id=":RONGJING_21_0" index="0" speed="6.51" length="9.03" shape="1586.40,-214.40 1588.85,-214.75 1590.60,-215.80 1591.65,-217.55 1592.00,-220.00"/>
    </edge>
    <edge id=":RONGJING_22" function="internal">
        <lane id=":RONGJING_22_0" index="0" speed="13.89" length="27.20" shape="1586.40,-214.40 1613.60,-214.40"/>
        <lane id=":RONGJING_22_1" index="1" speed="13.89" length="27.20" shape="1586.40,-211.20 1613.60,-211.20"/>
        <lane id=":RONGJING_22_2" index="2" speed="13.89" length="27.20" shape="1586.40,-208.00 1613.60,-208.00"/>
        <lane id=":RONGJING_22_3" index="3" speed="13.89" length="27.20" shape="1586.40,-204.80 1613.60,-204.80"/>
        <lane id=":RONGJING_22_4" index="4" speed="13.89" length="27.20" shape="1586.40,-201.60 1613.60,-201.60"/>
    </edge>
    <edge id=":RONGJING_27" function="internal">
        <lane id=":RONGJING_27_0" index="0" speed="11.39" length="3.61" shape="1586.40,-201.60 1589.94,-200.88"/>
    </edge>
    <edge id=":RONGJING_33" function="internal">
        <lane id=":RONGJING_33_0" index="0" speed="11.39" length="26.24" shape="1589.94,-200.88 1593.05,-200.25 1597.80,-196.20 1600.65,-189.45 1601.60,-180.00"/>
    </edge>
    <edge id=":RUICHENG_0" function="internal">
        <lane id=":RUICHENG_0_0" index="0" speed="6.51" length="9.03" shape="2392.00,-180.00 2391.65,-182.45 2390.60,-184.20 2388.85,-185.25 2386.40,-185.60"/>
        <lane id=":RUICHENG_0_1" index="1" speed="7.33" length="11.73" shape="2392.00,-180.00 2391.65,-183.85 2390.60,-186.60 2388.85,-188.25 2386.40,-188.80"/>
    </edge>
    <edge id=":RUICHENG_2" function="internal">
        <lane id=":RUICHENG_2_0" index="0" speed="13.89" length="40.00" shape="2392.00,-180.00 2392.00,-220.00"/>
        <lane id=":RUICHENG_2_1" index="1" speed="13.89" length="40.00" shape="2395.20,-180.00 2395.20,-220.00"/>
        <lane id=":RUICHENG_2_2" index="2" speed="13.89" length="40.00" shape="2398.40,-180.00 2398.40,-220.00"/>
    </edge>