<?xml version="1.0" encoding="UTF-8"?>

<!-- generated on 2024-09-19 16:52:04 by Eclipse SUMO jtrrouter Version 1.20.0
This data file and the accompanying materials
are made available under the terms of the Eclipse Public License v2.0
which accompanies this distribution, and is available at
http://www.eclipse.org/legal/epl-v20.html
This file may also be made available under the following Secondary
Licenses when the conditions for such availability set forth in the Eclipse
Public License 2.0 are satisfied: GNU General Public License, version 2
or later which is available at
https://www.gnu.org/licenses/old-licenses/gpl-2.0-standalone.html
SPDX-License-Identifier: EPL-2.0 OR GPL-2.0-or-later
<configuration xmlns:xsi="http://www.w3.org/2001/XMLSchema-instance" xsi:noNamespaceSchemaLocation="http://sumo.dlr.de/xsd/jtrrouterConfiguration.xsd">

    <input>
        <net-file value="9_nodes.net.xml"/>
        <route-files value="9_nodes.flows_all.xml"/>
        <turn-ratio-files value="9_nodes.turns.xml"/>
    </input>

    <output>
        <output-file value="9_nodes.rou.xml"/>
        <write-license value="true"/>
    </output>

    <processing>
        <accept-all-destinations value="true"/>
        <sources-are-sinks value="true"/>
    </processing>

    <report>
        <ignore-errors value="true"/>
        <no-step-log value="true"/>
    </report>

</configuration>
-->

<routes xmlns:xsi="http://www.w3.org/2001/XMLSchema-instance" xsi:noNamespaceSchemaLocation="http://sumo.dlr.de/xsd/routes_file.xsd">
    <vType id="CAR" minGap="1.50" maxSpeed="15.00" speedFactor="normc(1.00,0.05,0.20,2.00)" vClass="passenger" color="yellow" laneChangeModel="LC2013" lcStrategic="1.0" lcCooperative="1.0" lcAssertive="1.0" accel="2.6" decel="4.5" emergencyDecel="6.5" sigma="0.5" tau="1.0"/>
    <vehicle id="beihuanlu_north_T1.0" type="CAR" depart="0.00" departLane="best">
        <route edges="-E8 -E0 -E27"/>
    </vehicle>
    <vehicle id="beihuanlu_south_T1.0" type="CAR" depart="0.00" departLane="best">
        <route edges="-E9 E8"/>
    </vehicle>
    <vehicle id="jinxiujie_north_T1.0" type="CAR" depart="0.00" departLane="best">
        <route edges="-E22 -E7 -E6 -E5 -E4 -E3 -E2 -E1 -E0 -E27"/>
    </vehicle>
    <vehicle id="jinxiujie_south_T1.0" type="CAR" depart="0.00" departLane="best">
        <route edges="-E23 E28"/>
    </vehicle>
    <vType id="TRUCK" minGap="2.50" maxSpeed="10.00" vClass="truck" color="red" laneChangeModel="LC2013" accel="2.6" decel="4.5" sigma="0.5"/>
    <vehicle id="longqingjie_north_T1.0" type="TRUCK" depart="0.00" departLane="best">
        <route edges="-E12 E3 E4 E17"/>
    </vehicle>
    <vType id="BUS" minGap="2.50" maxSpeed="10.00" vClass="bus" color="red" laneChangeModel="LC2013" accel="2.6" decel="4.5" sigma="0.5"/>
    <vehicle id="longqingjie_south_T1.0" type="BUS" depart="0.00" departLane="best">
        <route edges="-E13 E12"/>
    </vehicle>
    <vehicle id="ronghualu_east_T1.0" type="CAR" depart="0.00" departLane="best">
        <route edges="-E28 -E7 -E6 -E5 -E4 -E3 -E2 -E1 -E0 -E27"/>
    </vehicle>
    <vehicle id="ronghualu_west_T1.0" type="CAR" depart="0.00" departLane="best">
        <route edges="E27 E0 E9"/>
    </vehicle>
    <vehicle id="rongjingjie_north_T1.0" type="CAR" depart="0.00" departLane="best">
        <route edges="-E16 E5 E6 E7 E28"/>
    </vehicle>
    <vehicle id="rongjingjie_south_T1.0" type="CAR" depart="0.00" departLane="best">
        <route edges="-E17 -E4 -E3 -E2 -E1 -E0 -E27"/>
    </vehicle>
    <vehicle id="wanyhuanjie_north_T1.0" type="CAR" depart="0.00" departLane="best">
        <route edges="-E10 -E1 -E0 -E27"/>
    </vehicle>
    <vehicle id="wanyhuanjie_south_T1.0" type="CAR" depart="0.00" departLane="best">
        <route edges="-E11 -E1 E9"/>
    </vehicle>
    <vehicle id="wenhuayuanli_north_T1.0" type="CAR" depart="0.00" departLane="best">
        <route edges="-E24 -E27"/>
    </vehicle>
    <vehicle id="wenhuayuanli_south_T1.0" type="CAR" depart="0.00" departLane="best">
        <route edges="-E26 -E27"/>
    </vehicle>
    <vehicle id="xingshengjie_north_T1.0" type="TRUCK" depart="0.00" departLane="best">
        <route edges="-E18 -E5 -E4 -E3 -E2 -E1 -E0 -E27"/>
    </vehicle>
    <vehicle id="xingshengjie_south_T1.0" type="CAR" depart="0.00" departLane="best">
        <route edges="-E19 -E5 -E4 -E3 -E2 -E1 -E0 -E27"/>
    </vehicle>
    <vehicle id="yunchengjie_north_T1.0" type="CAR" depart="0.00" departLane="best">
        <route edges="-E20 -E6 -E5 -E4 -E3 -E2 -E1 -E0 -E27"/>
    </vehicle>
    <vehicle id="yunchengjie_south_T1.0" type="CAR" depart="0.00" departLane="best">
        <route edges="-E21 E7 E28"/>
    </vehicle>
    <vehicle id="zhonghejie_north_T1.0" type="CAR" depart="0.00" departLane="best">
        <route edges="-E14 E15"/>
    </vehicle>
    <vehicle id="zhonghejie_south_T1.0" type="CAR" depart="0.00" departLane="best">
        <route edges="E15"/>
    </vehicle>
    <vehicle id="beihuanlu_north_T1.1" type="CAR" depart="1.99" departLane="best">
        <route edges="-E8 E1 E11"/>
    </vehicle>
    <vehicle id="ronghualu_east_T1.1" type="CAR" depart="2.22" departLane="best">
        <route edges="-E28 -E7 -E6 -E5 -E4 -E3 -E2 -E1 -E0 -E27"/>
    </vehicle>
    <vehicle id="rongjingjie_north_T1.1" type="CAR" depart="3.81" departLane="best">
        <route edges="-E16 E17"/>
    </vehicle>
    <vehicle id="wenhuayuanli_north_T1.1" type="BUS" depart="3.95" departLane="best">
        <route edges="-E24 -E27"/>
    </vehicle>
    <vehicle id="beihuanlu_north_T1.2" type="TRUCK" depart="3.97" departLane="best">
        <route edges="-E8 E9"/>
    </vehicle>
    <vehicle id="ronghualu_east_T1.2" type="CAR" depart="4.44" departLane="best">
        <route edges="-E28 -E7 -E6 -E5 -E4 -E3 -E2 E11"/>
    </vehicle>
    <vehicle id="beihuanlu_north_T1.3" type="CAR" depart="5.96" departLane="best">
        <route edges="-E8 E9"/>
    </vehicle>
    <vehicle id="ronghualu_east_T1.3" type="CAR" depart="6.65" departLane="best">
        <route edges="-E28 -E7 -E6 -E5 -E4 -E3 -E2 -E1 -E0 -E27"/>
    </vehicle>
    <vehicle id="ronghualu_west_T1.1" type="TRUCK" depart="6.88" departLane="best">
        <route edges="E27 E0 E1 E2 E3 E4 E16"/>
    </vehicle>
    <vehicle id="wenhuayuanli_south_T1.1" type="CAR" depart="6.92" departLane="best">
        <route edges="-E26 E24"/>
    </vehicle>
    <vehicle id="rongjingjie_south_T1.1" type="TRUCK" depart="7.36" departLane="best">
        <route edges="-E17 E16"/>
    </vehicle>
    <vehicle id="rongjingjie_north_T1.2" type="BUS" depart="7.63" departLane="best">
        <route edges="-E16 E17"/>
    </vehicle>
    <vehicle id="wenhuayuanli_north_T1.2" type="CAR" depart="7.89" departLane="best">
        <route edges="-E24 -E27"/>
    </vehicle>
    <vehicle id="beihuanlu_north_T1.4" type="CAR" depart="7.94" departLane="best">
        <route edges="-E8 -E0 -E27"/>
    </vehicle>
    <vehicle id="wanyhuanjie_north_T1.1" type="CAR" depart="8.18" departLane="best">
        <route edges="-E10 E2 E3 E4 E16"/>
    </vehicle>
    <vehicle id="ronghualu_east_T1.4" type="CAR" depart="8.87" departLane="best">
        <route edges="-E28 -E7 -E6 -E5 -E4 -E3 -E2 -E1 -E0 -E27"/>
    </vehicle>
    <vehicle id="longqingjie_north_T1.1" type="CAR" depart="9.47" departLane="best">
        <route edges="-E12 -E2 -E1 E8"/>
    </vehicle>
    <vehicle id="zhonghejie_north_T1.1" type="CAR" depart="9.60" departLane="best">
        <route edges="-E14 -E3 -E2 -E1 E9"/>
    </vehicle>
    <vehicle id="beihuanlu_north_T1.5" type="CAR" depart="9.93" departLane="best">
        <route edges="-E8 -E0 -E27"/>
    </vehicle>
    <vehicle id="wanyhuanjie_south_T1.1" type="CAR" depart="10.00" departLane="best">
        <route edges="-E11 -E1 -E0 -E27"/>
    </vehicle>
    <vehicle id="ronghualu_east_T1.5" type="CAR" depart="11.09" departLane="best">
        <route edges="-E28 -E7 -E6 -E5 -E4 -E3 -E2 -E1 -E0 -E27"/>
    </vehicle>
    <vehicle id="rongjingjie_north_T1.3" type="CAR" depart="11.44" departLane="best">
        <route edges="-E16 E17"/>
    </vehicle>
    <vehicle id="wenhuayuanli_north_T1.3" type="CAR" depart="11.84" departLane="best">
        <route edges="-E24 -E27"/>
    </vehicle>
    <vehicle id="beihuanlu_north_T1.6" type="CAR" depart="11.91" departLane="best">
        <route edges="-E8 -E0 -E27"/>
    </vehicle>
    <vehicle id="beihuanlu_south_T1.1" type="BUS" depart="13.04" departLane="best">
        <route edges="-E9 -E0 -E27"/>
    </vehicle>
    <vehicle id="ronghualu_east_T1.6" type="CAR" depart="13.31" departLane="best">
        <route edges="-E28 -E7 -E6 -E5 -E4 -E3 -E2 -E1 -E0 -E27"/>
    </vehicle>
    <vehicle id="jinxiujie_north_T1.1" type="CAR" depart="13.59" departLane="best">
        <route edges="-E22 -E7 -E6 -E5 E16"/>
    </vehicle>
    <vehicle id="ronghualu_west_T1.2" type="CAR" depart="13.77" departLane="best">
        <route edges="E27 E0 E8"/>
    </vehicle>
    <vehicle id="wenhuayuanli_south_T1.2" type="CAR" depart="13.85" departLane="best">
        <route edges="-E26 -E27"/>
    </vehicle>
    <vehicle id="beihuanlu_north_T1.7" type="CAR" depart="13.90" departLane="best">
        <route edges="-E8 -E0 -E27"/>
    </vehicle>
    <vehicle id="zhonghejie_south_T1.1" type="TRUCK" depart="14.29" departLane="best">
        <route edges="E15"/>
    </vehicle>
    <vehicle id="rongjingjie_south_T1.2" type="TRUCK" depart="14.72" departLane="best">
        <route edges="-E17 E16"/>
    </vehicle>
    <vehicle id="rongjingjie_north_T1.4" type="CAR" depart="15.26" departLane="best">
        <route edges="-E16 E5 E19"/>
    </vehicle>
    <vehicle id="ronghualu_east_T1.7" type="CAR" depart="15.53" departLane="best">
        <route edges="-E28 -E7 -E6 -E5 -E4 -E3 -E2 -E1 -E0 -E27"/>
    </vehicle>
    <vehicle id="wenhuayuanli_north_T1.4" type="CAR" depart="15.79" departLane="best">
        <route edges="-E24 -E27"/>
    </vehicle>
    <vehicle id="beihuanlu_north_T1.8" type="CAR" depart="15.88" departLane="best">
        <route edges="-E8 E9"/>
    </vehicle>
    <vehicle id="wanyhuanjie_north_T1.2" type="CAR" depart="16.36" departLane="best">
        <route edges="-E10 -E1 -E0 -E27"/>
    </vehicle>
    <vehicle id="yunchengjie_north_T1.1" type="CAR" depart="17.06" departLane="best">
        <route edges="-E20 E21"/>
    </vehicle>
    <vehicle id="longqingjie_south_T1.1" type="CAR" depart="17.14" departLane="best">
        <route edges="-E13 -E2 -E1 -E0 -E27"/>
    </vehicle>
    <vehicle id="xingshengjie_north_T1.1" type="CAR" depart="17.48" departLane="best">
        <route edges="-E18 -E5 -E4 -E3 -E2 -E1 -E0 -E27"/>
    </vehicle>
    <vehicle id="ronghualu_east_T1.8" type="CAR" depart="17.74" departLane="best">
        <route edges="-E28 -E7 -E6 -E5 -E4 -E3 -E2 -E1 -E0 -E27"/>
    </vehicle>
    <vehicle id="beihuanlu_north_T1.9" type="CAR" depart="17.87" departLane="best">
        <route edges="-E8 E9"/>
    </vehicle>
    <vehicle id="longqingjie_north_T1.2" type="CAR" depart="18.95" departLane="best">
        <route edges="-E12 -E2 -E1 -E0 -E27"/>
    </vehicle>
    <vehicle id="rongjingjie_north_T1.5" type="CAR" depart="19.07" departLane="best">
        <route edges="-E16 E17"/>
    </vehicle>
    <vehicle id="zhonghejie_north_T1.2" type="TRUCK" depart="19.20" departLane="best">
        <route edges="-E14 E15"/>
    </vehicle>
    <vehicle id="wenhuayuanli_north_T1.5" type="BUS" depart="19.74" departLane="best">
        <route edges="-E24 -E27"/>
    </vehicle>
    <vehicle id="beihuanlu_north_T1.10" type="CAR" depart="19.85" departLane="best">
        <route edges="-E8 E9"/>
    </vehicle>
    <vehicle id="ronghualu_east_T1.9" type="CAR" depart="19.96" departLane="best">
        <route edges="-E28 -E7 -E6 -E5 -E4 -E3 -E2 -E1 -E0 -E27"/>
    </vehicle>
    <vehicle id="wanyhuanjie_south_T1.2" type="TRUCK" depart="20.00" departLane="best">
        <route edges="-E11 E10"/>
    </vehicle>
    <vehicle id="ronghualu_west_T1.3" type="CAR" depart="20.65" departLane="best">
        <route edges="E27 E0 E8"/>
    </vehicle>
    <vehicle id="wenhuayuanli_south_T1.3" type="CAR" depart="20.77" departLane="best">
        <route edges="-E26 E24"/>
    </vehicle>
    <vehicle id="beihuanlu_north_T1.11" type="CAR" depart="21.84" departLane="best">
        <route edges="-E8 -E0 -E27"/>
    </vehicle>
    <vehicle id="rongjingjie_south_T1.3" type="CAR" depart="22.09" departLane="best">
        <route edges="-E17 -E4 -E3 -E2 -E1 -E0 -E27"/>
    </vehicle>
    <vehicle id="ronghualu_east_T1.10" type="CAR" depart="22.18" departLane="best">
        <route edges="-E28 -E7 -E6 -E5 -E4 -E3 -E2 -E1 -E0 -E27"/>
    </vehicle>
    <vehicle id="rongjingjie_north_T1.6" type="CAR" depart="22.88" departLane="best">
        <route edges="-E16 E17"/>
    </vehicle>
    <vehicle id="wenhuayuanli_north_T1.6" type="CAR" depart="23.68" departLane="best">
        <route edges="-E24 -E27"/>
    </vehicle>
    <vehicle id="beihuanlu_north_T1.12" type="CAR" depart="23.82" departLane="best">
        <route edges="-E8 E9"/>
    </vehicle>
    <vehicle id="ronghualu_east_T1.11" type="CAR" depart="24.40" departLane="best">
        <route edges="-E28 -E7 -E6 -E5 -E4 -E3 -E2 -E1 -E0 -E27"/>
    </vehicle>
    <vehicle id="wanyhuanjie_north_T1.3" type="CAR" depart="24.55" departLane="best">
        <route edges="-E10 E11"/>
    </vehicle>
    <vehicle id="xingshengjie_south_T1.1" type="CAR" depart="25.71" departLane="best">
        <route edges="-E19 E18"/>
    </vehicle>
    <vehicle id="beihuanlu_north_T1.13" type="CAR" depart="25.81" departLane="best">
        <route edges="-E8 -E0 -E27"/>
    </vehicle>
    <vehicle id="beihuanlu_south_T1.2" type="CAR" depart="26.09" departLane="best">
        <route edges="-E9 -E0 -E27"/>
    </vehicle>
    <vehicle id="ronghualu_east_T1.12" type="CAR" depart="26.62" departLane="best">
        <route edges="-E28 -E7 -E6 -E5 -E4 -E3 -E2 -E1 -E0 -E27"/>
    </vehicle>
    <vehicle id="rongjingjie_north_T1.7" type="BUS" depart="26.70" departLane="best">
        <route edges="-E16 E17"/>
    </vehicle>
    <vehicle id="jinxiujie_north_T1.2" type="CAR" depart="27.17" departLane="best">
        <route edges="-E22 -E7 -E6 -E5 -E4 -E3 -E2 -E1 -E0 -E27"/>
    </vehicle>
    <vehicle id="ronghualu_west_T1.4" type="CAR" depart="27.53" departLane="best">
        <route edges="E27 E0 E1 E2 E3 E4 E5 E19"/>
    </vehicle>
    <vehicle id="wenhuayuanli_north_T1.7" type="CAR" depart="27.63" departLane="best">
        <route edges="-E24 -E27"/>
    </vehicle>
    <vehicle id="wenhuayuanli_south_T1.4" type="TRUCK" depart="27.69" departLane="best">
        <route edges="-E26 E24"/>
    </vehicle>
    <vehicle id="yunchengjie_south_T1.1" type="CAR" depart="27.69" departLane="best">
        <route edges="-E21 E7 E28"/>
    </vehicle>
    <vehicle id="beihuanlu_north_T1.14" type="BUS" depart="27.79" departLane="best">
        <route edges="-E8 E1 E2 E3 E4 E5 E19"/>
    </vehicle>
    <vehicle id="longqingjie_north_T1.3" type="CAR" depart="28.42" departLane="best">
        <route edges="-E12 E3 E15"/>
    </vehicle>
    <vehicle id="zhonghejie_south_T1.2" type="CAR" depart="28.57" departLane="best">
        <route edges="E15"/>
    </vehicle>
    <vehicle id="zhonghejie_north_T1.3" type="CAR" depart="28.80" departLane="best">
        <route edges="-E14 E15"/>
    </vehicle>
    <vehicle id="ronghualu_east_T1.13" type="TRUCK" depart="28.83" departLane="best">
        <route edges="-E28 -E7 -E6 -E5 -E4 -E3 -E2 -E1 E9"/>
    </vehicle>
    <vehicle id="rongjingjie_south_T1.4" type="CAR" depart="29.45" departLane="best">
        <route edges="-E17 -E4 -E3 -E2 -E1 -E0 -E27"/>
    </vehicle>
    <vehicle id="beihuanlu_north_T1.15" type="TRUCK" depart="29.78" departLane="best">
        <route edges="-E8 -E0 -E27"/>
    </vehicle>
    <vehicle id="wanyhuanjie_south_T1.3" type="CAR" depart="30.00" departLane="best">
        <route edges="-E11 -E1 -E0 -E27"/>
    </vehicle>
    <vehicle id="rongjingjie_north_T1.8" type="CAR" depart="30.51" departLane="best">
        <route edges="-E16 E5 E18"/>
    </vehicle>
    <vehicle id="ronghualu_east_T1.14" type="CAR" depart="31.05" departLane="best">
        <route edges="-E28 -E7 -E6 -E5 -E4 -E3 -E2 -E1 -E0 -E27"/>
    </vehicle>
    <vehicle id="wenhuayuanli_north_T1.8" type="CAR" depart="31.58" departLane="best">
        <route edges="-E24 E0 E8"/>
    </vehicle>
    <vehicle id="beihuanlu_north_T1.16" type="CAR" depart="31.76" departLane="best">
        <route edges="-E8 E9"/>
    </vehicle>
    <vehicle id="wanyhuanjie_north_T1.4" type="CAR" depart="32.73" departLane="best">
        <route edges="-E10 E11"/>
    </vehicle>
    <vehicle id="ronghualu_east_T1.15" type="CAR" depart="33.27" departLane="best">
        <route edges="-E28 -E7 -E6 -E5 -E4 -E3 -E2 -E1 -E0 -E27"/>
    </vehicle>
    <vehicle id="beihuanlu_north_T1.17" type="CAR" depart="33.75" departLane="best">
        <route edges="-E8 -E0 -E27"/>
    </vehicle>
    <vehicle id="yunchengjie_north_T1.2" type="CAR" depart="34.12" departLane="best">
        <route edges="-E20 E21"/>
    </vehicle>
    <vehicle id="longqingjie_south_T1.2" type="TRUCK" depart="34.29" departLane="best">
        <route edges="-E13 E12"/>
    </vehicle>
    <vehicle id="rongjingjie_north_T1.9" type="CAR" depart="34.33" departLane="best">
        <route edges="-E16 E17"/>
    </vehicle>
    <vehicle id="ronghualu_west_T1.5" type="TRUCK" depart="34.42" departLane="best">
        <route edges="E27 E0 E8"/>
    </vehicle>
    <vehicle id="wenhuayuanli_south_T1.5" type="CAR" depart="34.62" departLane="best">
        <route edges="-E26 -E27"/>
    </vehicle>
    <vehicle id="xingshengjie_north_T1.2" type="CAR" depart="34.95" departLane="best">
        <route edges="-E18 E6 E21"/>
    </vehicle>
    <vehicle id="ronghualu_east_T1.16" type="CAR" depart="35.49" departLane="best">
        <route edges="-E28 -E7 -E6 -E5 -E4 -E3 -E2 -E1 -E0 -E27"/>
    </vehicle>
    <vehicle id="wenhuayuanli_north_T1.9" type="CAR" depart="35.52" departLane="best">
        <route edges="-E24 -E27"/>
    </vehicle>
    <vehicle id="beihuanlu_north_T1.18" type="CAR" depart="35.73" departLane="best">
        <route edges="-E8 -E0 -E27"/>
    </vehicle>
    <vehicle id="rongjingjie_south_T1.5" type="CAR" depart="36.81" departLane="best">
        <route edges="-E17 -E4 -E3 -E2 -E1 -E0 -E27"/>
    </vehicle>
    <vehicle id="ronghualu_east_T1.17" type="CAR" depart="37.71" departLane="best">
        <route edges="-E28 -E7 -E6 -E5 -E4 -E3 -E2 -E1 -E0 -E27"/>
    </vehicle>
    <vehicle id="beihuanlu_north_T1.19" type="CAR" depart="37.72" departLane="best">
        <route edges="-E8 -E0 -E27"/>
    </vehicle>
    <vehicle id="longqingjie_north_T1.4" type="CAR" depart="37.90" departLane="best">
        <route edges="-E12 E13"/>
    </vehicle>
    <vehicle id="rongjingjie_north_T1.10" type="CAR" depart="38.14" departLane="best">
        <route edges="-E16 E5 E19"/>
    </vehicle>
    <vehicle id="zhonghejie_north_T1.4" type="CAR" depart="38.40" departLane="best">
        <route edges="-E14 -E3 E13"/>
    </vehicle>
    <vehicle id="beihuanlu_south_T1.3" type="CAR" depart="39.13" departLane="best">
        <route edges="-E9 E8"/>
    </vehicle>
    <vehicle id="wenhuayuanli_north_T1.10" type="CAR" depart="39.47" departLane="best">
        <route edges="-E24 -E27"/>
    </vehicle>
    <vehicle id="beihuanlu_north_T1.20" type="BUS" depart="39.70" departLane="best">
        <route edges="-E8 -E0 -E27"/>
    </vehicle>
    <vehicle id="ronghualu_east_T1.18" type="CAR" depart="39.92" departLane="best">
        <route edges="-E28 -E7 -E6 -E5 -E4 -E3 -E2 -E1 E9"/>
    </vehicle>
    <vehicle id="wanyhuanjie_south_T1.4" type="CAR" depart="40.00" departLane="best">
        <route edges="-E11 -E1 -E0 -E27"/>
    </vehicle>
    <vehicle id="jinxiujie_north_T1.3" type="BUS" depart="40.76" departLane="best">
        <route edges="-E22 -E7 -E6 -E5 -E4 -E3 -E2 -E1 -E0 -E27"/>
    </vehicle>
    <vehicle id="wanyhuanjie_north_T1.5" type="CAR" depart="40.91" departLane="best">
        <route edges="-E10 -E1 -E0 -E27"/>
    </vehicle>
    <vehicle id="ronghualu_west_T1.6" type="BUS" depart="41.30" departLane="best">
        <route edges="E27 E0 E8"/>
    </vehicle>
    <vehicle id="wenhuayuanli_south_T1.6" type="CAR" depart="41.54" departLane="best">
        <route edges="-E26 E0 E9"/>
    </vehicle>
    <vehicle id="beihuanlu_north_T1.21" type="CAR" depart="41.69" departLane="best">
        <route edges="-E8 E9"/>
    </vehicle>
    <vehicle id="rongjingjie_north_T1.11" type="CAR" depart="41.95" departLane="best">
        <route edges="-E16 E5 E19"/>
    </vehicle>
    <vehicle id="ronghualu_east_T1.19" type="CAR" depart="42.14" departLane="best">
        <route edges="-E28 -E7 -E6 -E5 -E4 -E3 -E2 -E1 -E0 -E27"/>
    </vehicle>
    <vehicle id="zhonghejie_south_T1.3" type="TRUCK" depart="42.86" departLane="best">
        <route edges="E15"/>
    </vehicle>
    <vehicle id="wenhuayuanli_north_T1.11" type="CAR" depart="43.42" departLane="best">
        <route edges="-E24 -E27"/>
    </vehicle>
    <vehicle id="beihuanlu_north_T1.22" type="CAR" depart="43.67" departLane="best">
        <route edges="-E8 E9"/>
    </vehicle>
    <vehicle id="rongjingjie_south_T1.6" type="CAR" depart="44.17" departLane="best">
        <route edges="-E17 -E4 -E3 -E2 -E1 -E0 -E27"/>
    </vehicle>
    <vehicle id="ronghualu_east_T1.20" type="CAR" depart="44.36" departLane="best">
        <route edges="-E28 -E7 -E6 -E5 -E4 -E3 -E2 -E1 -E0 -E27"/>
    </vehicle>
    <vehicle id="beihuanlu_north_T1.23" type="CAR" depart="45.66" departLane="best">
        <route edges="-E8 -E0 -E27"/>
    </vehicle>
    <vehicle id="rongjingjie_north_T1.12" type="CAR" depart="45.77" departLane="best">
        <route edges="-E16 E5 E6 E7 E28"/>
    </vehicle>
    <vehicle id="ronghualu_east_T1.21" type="BUS" depart="46.58" departLane="best">
        <route edges="-E28 -E7 -E6 -E5 -E4 -E3 -E2 -E1 -E0 -E27"/>
    </vehicle>
    <vehicle id="wenhuayuanli_north_T1.12" type="CAR" depart="47.36" departLane="best">
        <route edges="-E24 E26"/>
    </vehicle>
    <vehicle id="longqingjie_north_T1.5" type="CAR" depart="47.37" departLane="best">
        <route edges="-E12 E13"/>
    </vehicle>
    <vehicle id="beihuanlu_north_T1.24" type="CAR" depart="47.64" departLane="best">
        <route edges="-E8 -E0 -E27"/>
    </vehicle>
    <vehicle id="zhonghejie_north_T1.5" type="TRUCK" depart="48.00" departLane="best">
        <route edges="-E14 E15"/>
    </vehicle>
    <vehicle id="ronghualu_west_T1.7" type="CAR" depart="48.18" departLane="best">
        <route edges="E27 E26"/>
    </vehicle>
    <vehicle id="wenhuayuanli_south_T1.7" type="CAR" depart="48.46" departLane="best">
        <route edges="-E26 -E27"/>
    </vehicle>
    <vehicle id="ronghualu_east_T1.22" type="BUS" depart="48.80" departLane="best">
        <route edges="-E28 -E7 -E6 -E5 -E4 -E3 -E2 -E1 -E0 -E27"/>
    </vehicle>
    <vehicle id="wanyhuanjie_north_T1.6" type="CAR" depart="49.09" departLane="best">
        <route edges="-E10 -E1 E8"/>
    </vehicle>
    <vehicle id="rongjingjie_north_T1.13" type="CAR" depart="49.58" departLane="best">
        <route edges="-E16 E5 E6 E7 E28"/>
    </vehicle>
    <vehicle id="beihuanlu_north_T1.25" type="CAR" depart="49.63" departLane="best">
        <route edges="-E8 E1 E2 E12"/>
    </vehicle>
    <vehicle id="wanyhuanjie_south_T1.5" type="CAR" depart="50.00" departLane="best">
        <route edges="-E11 E10"/>
    </vehicle>
    <vehicle id="jinxiujie_south_T1.1" type="CAR" depart="50.70" departLane="best">
        <route edges="-E23 E28"/>
    </vehicle>
    <vehicle id="ronghualu_east_T1.23" type="CAR" depart="51.01" departLane="best">
        <route edges="-E28 -E7 -E6 -E5 -E4 -E3 E13"/>
    </vehicle>
    <vehicle id="yunchengjie_north_T1.3" type="CAR" depart="51.19" departLane="best">
        <route edges="-E20 E7 E28"/>
    </vehicle>
    <vehicle id="wenhuayuanli_north_T1.13" type="CAR" depart="51.31" departLane="best">
        <route edges="-E24 E26"/>
    </vehicle>
    <vehicle id="xingshengjie_south_T1.2" type="CAR" depart="51.43" departLane="best">
        <route edges="-E19 -E5 -E4 -E3 -E2 -E1 -E0 -E27"/>
    </vehicle>
    <vehicle id="longqingjie_south_T1.3" type="CAR" depart="51.43" departLane="best">
        <route edges="-E13 E12"/>
    </vehicle>
    <vehicle id="rongjingjie_south_T1.7" type="CAR" depart="51.53" departLane="best">
        <route edges="-E17 E16"/>
    </vehicle>
    <vehicle id="beihuanlu_north_T1.26" type="CAR" depart="51.61" departLane="best">
        <route edges="-E8 -E0 -E27"/>
    </vehicle>
    <vehicle id="beihuanlu_south_T1.4" type="TRUCK" depart="52.17" departLane="best">
        <route edges="-E9 E8"/>
    </vehicle>
    <vehicle id="xingshengjie_north_T1.3" type="CAR" depart="52.43" departLane="best">
        <route edges="-E18 E6 E7 E23"/>
    </vehicle>
    <vehicle id="ronghualu_east_T1.24" type="BUS" depart="53.23" departLane="best">
        <route edges="-E28 -E7 -E6 -E5 -E4 -E3 -E2 -E1 -E0 -E27"/>
    </vehicle>
    <vehicle id="rongjingjie_north_T1.14" type="CAR" depart="53.40" departLane="best">
        <route edges="-E16 E17"/>
    </vehicle>
    <vehicle id="beihuanlu_north_T1.27" type="BUS" depart="53.60" departLane="best">
        <route edges="-E8 E9"/>
    </vehicle>
    <vehicle id="jinxiujie_north_T1.4" type="CAR" depart="54.34" departLane="best">
        <route edges="-E22 -E7 -E6 -E5 -E4 -E3 -E2 -E1 -E0 -E27"/>
    </vehicle>
    <vehicle id="ronghualu_west_T1.8" type="CAR" depart="55.06" departLane="best">
        <route edges="E27 E0 E1 E2 E3 E4 E16"/>
    </vehicle>
    <vehicle id="wenhuayuanli_north_T1.14" type="CAR" depart="55.26" departLane="best">
        <route edges="-E24 -E27"/>
    </vehicle>
    <vehicle id="wenhuayuanli_south_T1.8" type="CAR" depart="55.38" departLane="best">
        <route edges="-E26 E24"/>
    </vehicle>
    <vehicle id="yunchengjie_south_T1.2" type="CAR" depart="55.38" departLane="best">
        <route edges="-E21 E7 E22"/>
    </vehicle>
    <vehicle id="ronghualu_east_T1.25" type="CAR" depart="55.45" departLane="best">
        <route edges="-E28 -E7 -E6 -E5 -E4 -E3 -E2 -E1 -E0 -E27"/>
    </vehicle>
    <vehicle id="beihuanlu_north_T1.28" type="CAR" depart="55.58" departLane="best">
        <route edges="-E8 -E0 -E27"/>
    </vehicle>
    <vehicle id="longqingjie_north_T1.6" type="CAR" depart="56.84" departLane="best">
        <route edges="-E12 -E2 -E1 -E0 -E27"/>
    </vehicle>
    <vehicle id="zhonghejie_south_T1.4" type="TRUCK" depart="57.14" departLane="best">
        <route edges="E15"/>
    </vehicle>
    <vehicle id="rongjingjie_north_T1.15" type="BUS" depart="57.21" departLane="best">
        <route edges="-E16 E17"/>
    </vehicle>
    <vehicle id="wanyhuanjie_north_T1.7" type="CAR" depart="57.27" departLane="best">
        <route edges="-E10 E2 E3 E4 E5 E6 E7 E28"/>
    </vehicle>
    <vehicle id="beihuanlu_north_T1.29" type="CAR" depart="57.57" departLane="best">
        <route edges="-E8 -E0 -E27"/>
    </vehicle>
    <vehicle id="zhonghejie_north_T1.6" type="CAR" depart="57.60" departLane="best">
        <route edges="-E14 E15"/>
    </vehicle>
    <vehicle id="ronghualu_east_T1.26" type="CAR" depart="57.67" departLane="best">
        <route edges="-E28 -E7 -E6 -E5 -E4 -E3 -E2 -E1 -E0 -E27"/>
    </vehicle>
    <vehicle id="rongjingjie_south_T1.8" type="CAR" depart="58.90" departLane="best">
        <route edges="-E17 E16"/>
    </vehicle>
    <vehicle id="wenhuayuanli_north_T1.15" type="CAR" depart="59.21" departLane="best">
        <route edges="-E24 -E27"/>
    </vehicle>
    <vehicle id="beihuanlu_north_T1.30" type="TRUCK" depart="59.55" departLane="best">
        <route edges="-E8 E9"/>
    </vehicle>
    <vehicle id="ronghualu_east_T1.27" type="CAR" depart="59.89" departLane="best">
        <route edges="-E28 -E7 -E6 -E5 -E4 -E3 -E2 -E1 -E0 -E27"/>
    </vehicle>
    <vehicle id="wanyhuanjie_south_T1.6" type="CAR" depart="60.00" departLane="best">
        <route edges="-E11 E10"/>
    </vehicle>
    <vehicle id="rongjingjie_north_T1.16" type="CAR" depart="61.02" departLane="best">
        <route edges="-E16 E5 E6 E20"/>
    </vehicle>
    <vehicle id="beihuanlu_north_T1.31" type="CAR" depart="61.54" departLane="best">
        <route edges="-E8 E9"/>
    </vehicle>
    <vehicle id="ronghualu_west_T1.9" type="CAR" depart="61.95" departLane="best">
        <route edges="E27 E0 E1 E2 E3 E4 E5 E6 E7 E22"/>
    </vehicle>
    <vehicle id="ronghualu_east_T1.28" type="CAR" depart="62.10" departLane="best">
        <route edges="-E28 -E7 -E6 -E5 -E4 -E3 -E2 -E1 -E0 -E27"/>
    </vehicle>
    <vehicle id="wenhuayuanli_south_T1.9" type="CAR" depart="62.31" departLane="best">
        <route edges="-E26 -E27"/>
    </vehicle>
    <vehicle id="wenhuayuanli_north_T1.16" type="CAR" depart="63.15" departLane="best">
        <route edges="-E24 -E27"/>
    </vehicle>
    <vehicle id="beihuanlu_north_T1.32" type="CAR" depart="63.52" departLane="best">
        <route edges="-E8 -E0 -E27"/>
    </vehicle>
    <vehicle id="ronghualu_east_T1.29" type="CAR" depart="64.32" departLane="best">
        <route edges="-E28 -E7 -E6 -E5 -E4 -E3 -E2 E11"/>
    </vehicle>
    <vehicle id="rongjingjie_north_T1.17" type="BUS" depart="64.84" departLane="best">
        <route edges="-E16 E17"/>
    </vehicle>
    <vehicle id="beihuanlu_south_T1.5" type="CAR" depart="65.22" departLane="best">
        <route edges="-E9 E1 E10"/>
    </vehicle>
    <vehicle id="wanyhuanjie_north_T1.8" type="BUS" depart="65.46" departLane="best">
        <route edges="-E10 E11"/>
    </vehicle>
    <vehicle id="beihuanlu_north_T1.33" type="CAR" depart="65.51" departLane="best">
        <route edges="-E8 -E0 -E27"/>
    </vehicle>
    <vehicle id="rongjingjie_south_T1.9" type="BUS" depart="66.26" departLane="best">
        <route edges="-E17 E16"/>
    </vehicle>