<?xml version="1.0" encoding="UTF-8"?>

<!-- generated on 2024-04-25 23:26:31 by Eclipse SUMO netedit Version 1.19.0
<configuration xmlns:xsi="http://www.w3.org/2001/XMLSchema-instance" xsi:noNamespaceSchemaLocation="http://sumo.dlr.de/xsd/neteditConfiguration.xsd">

    <input>
        <sumocfg-file value="E:\bishe\现状仿真\第一天早高峰\4.sumocfg"/>
        <sumo-net-file value="E:\bishe\现状仿真\第一天早高峰\4.net.xml"/>
    </input>

    <output>
        <output-file value="E:\bishe\现状仿真\第一天早高峰\4.net.xml"/>
    </output>

    <processing>
        <geometry.min-radius.fix.railways value="false"/>
        <geometry.max-grade.fix value="false"/>
        <offset.disable-normalization value="true"/>
        <lefthand value="0"/>
    </processing>

    <junctions>
        <no-internal-links value="false"/>
        <no-turnarounds value="true"/>
        <junctions.corner-detail value="5"/>
        <junctions.limit-turn-speed value="5.50"/>
        <rectangular-lane-cut value="0"/>
    </junctions>

    <pedestrian>
        <walkingareas value="0"/>
    </pedestrian>

    <netedit>
        <new-network value="false"/>
    </netedit>

</configuration>
-->

<net version="1.16" junctionCornerDetail="5" limitTurnSpeed="5.50" xmlns:xsi="http://www.w3.org/2001/XMLSchema-instance" xsi:noNamespaceSchemaLocation="http://sumo.dlr.de/xsd/net_file.xsd">

    <location netOffset="0.00,0.00" convBoundary="-304.62,-648.81,305.63,675.83" origBoundary="-10000000000.00,-10000000000.00,10000000000.00,10000000000.00" projParameter="!"/>

    <edge id=":J0_0" function="internal">
        <lane id=":J0_0_0" index="0" allow="pedestrian" speed="6.73" length="9.12" width="5.00" shape="-27.10,396.40 -27.38,393.45 -28.23,391.34 -29.62,390.07 -31.58,389.65"/>
    </edge>
    <edge id=":J0_1" function="internal">
        <lane id=":J0_1_0" index="0" allow="pedestrian" speed="13.89" length="63.20" width="5.00" shape="-27.10,396.40 -25.41,333.22"/>
        <lane id=":J0_1_1" index="1" allow="bicycle" speed="13.89" length="63.20" width="2.00" shape="-23.61,396.41 -20.41,333.28"/>
    </edge>
    <edge id=":J0_3" function="internal">
        <lane id=":J0_3_0" index="0" disallow="pedestrian" speed="10.82" length="15.19" width="3.50" shape="-21.10,396.41 -21.77,386.77 -23.28,381.45"/>
    </edge>
    <edge id=":J0_4" function="internal">
        <lane id=":J0_4_0" index="0" disallow="pedestrian" speed="13.89" length="65.14" width="3.00" shape="-18.09,396.41 -14.99,380.98 -5.63,369.98 10.00,363.39 27.91,361.62"/>
    </edge>
    <edge id=":J0_5" function="internal">
        <lane id=":J0_5_0" index="0" disallow="pedestrian" speed="13.89" length="63.04" width="3.75" shape="-12.81,396.42 -10.29,333.41"/>
        <lane id=":J0_5_1" index="1" disallow="pedestrian" speed="13.89" length="63.04" width="3.75" shape="-9.38,396.42 -6.54,333.46"/>
    </edge>
    <edge id=":J0_7" function="internal">
        <lane id=":J0_7_0" index="0" disallow="pedestrian" speed="13.89" length="57.25" width="3.00" shape="-5.88,396.42 -3.53,379.69 3.54,367.75 15.35,360.60 27.90,358.81"/>
        <lane id=":J0_7_1" index="1" disallow="pedestrian" speed="13.89" length="52.02" width="3.00" shape="-2.36,396.43 -0.24,381.00 6.18,370.00 16.89,363.41 27.91,361.81"/>
    </edge>
    <edge id=":J0_9" function="internal">
        <lane id=":J0_9_0" index="0" disallow="pedestrian" speed="3.99" length="5.83" width="3.50" shape="-2.36,396.43 -1.36,394.93 -0.36,394.44 0.63,394.94 1.63,396.43"/>
    </edge>
    <edge id=":J0_37" function="internal">
        <lane id=":J0_37_0" index="0" disallow="pedestrian" speed="10.82" length="11.66" width="3.50" shape="-23.28,381.45 -23.73,379.88 -26.99,375.75 -31.56,374.37"/>
    </edge>
    <edge id=":J0_38" function="internal">
        <lane id=":J0_38_0" index="0" disallow="pedestrian" speed="13.89" length="4.01" width="3.00" shape="27.91,361.62 31.90,361.23"/>
    </edge>
    <edge id=":J0_39" function="internal">
        <lane id=":J0_39_0" index="0" disallow="pedestrian" speed="13.89" length="4.03" width="3.00" shape="27.90,358.81 31.89,358.24"/>
    </edge>
    <edge id=":J0_40" function="internal">
        <lane id=":J0_40_0" index="0" disallow="pedestrian" speed="13.89" length="4.03" width="3.00" shape="27.91,361.81 31.90,361.23"/>
    </edge>
    <edge id=":J0_10" function="internal">
        <lane id=":J0_10_0" index="0" allow="pedestrian" speed="7.40" length="7.31" width="5.00" shape="32.04,389.40 28.90,389.81 26.66,391.13 25.86,392.46"/>
    </edge>
    <edge id=":J0_11" function="internal">
        <lane id=":J0_11_0" index="0" allow="pedestrian" speed="13.89" length="63.60" width="5.00" shape="32.04,389.40 -31.58,389.65"/>
        <lane id=":J0_11_1" index="1" allow="bicycle" speed="13.89" length="63.60" width="2.50" shape="32.02,385.65 -31.57,384.82"/>
    </edge>
    <edge id=":J0_13" function="internal">
        <lane id=":J0_13_0" index="0" disallow="pedestrian" speed="9.70" length="17.53" width="3.00" shape="32.00,382.90 26.26,383.70 22.15,386.22 19.69,390.48 19.42,392.45"/>
        <lane id=":J0_13_1" index="1" disallow="pedestrian" speed="11.62" length="27.37" width="3.00" shape="31.96,373.89 24.92,375.25 19.89,379.46 16.87,386.53 16.28,392.45"/>
    </edge>
    <edge id=":J0_15" function="internal">
        <lane id=":J0_15_0" index="0" disallow="pedestrian" speed="13.89" length="63.50" width="3.50" shape="31.96,373.89 -31.56,374.37"/>
        <lane id=":J0_15_1" index="1" disallow="pedestrian" speed="13.89" length="63.50" width="3.50" shape="31.95,370.89 -31.55,370.88"/>
        <lane id=":J0_15_2" index="2" disallow="pedestrian" speed="13.89" length="63.50" width="3.50" shape="31.93,367.89 -31.55,367.43"/>
    </edge>
    <edge id=":J0_18" function="internal">
        <lane id=":J0_18_0" index="0" disallow="pedestrian" speed="13.89" length="49.37" width="3.75" shape="31.92,364.89 16.73,362.81 5.88,356.89 -0.62,347.12 -2.18,337.30"/>
    </edge>
    <edge id=":J0_19" function="internal">
        <lane id=":J0_19_0" index="0" disallow="pedestrian" speed="3.79" length="5.35" width="3.00" shape="31.92,364.89 30.54,363.99 30.08,363.07 30.53,362.15 31.90,361.23"/>
    </edge>
    <edge id=":J0_41" function="internal">
        <lane id=":J0_41_0" index="0" allow="pedestrian" speed="7.40" length="4.18" width="5.00" shape="25.86,392.46 25.32,393.34 24.88,396.46"/>
    </edge>
    <edge id=":J0_42" function="internal">
        <lane id=":J0_42_0" index="0" disallow="pedestrian" speed="9.70" length="4.04" width="3.00" shape="19.42,392.45 18.88,396.45"/>
    </edge>
    <edge id=":J0_43" function="internal">
        <lane id=":J0_43_0" index="0" disallow="pedestrian" speed="11.62" length="4.02" width="3.00" shape="16.28,392.45 15.88,396.45"/>
    </edge>
    <edge id=":J0_44" function="internal">
        <lane id=":J0_44_0" index="0" disallow="pedestrian" speed="13.89" length="3.84" width="3.75" shape="-2.18,337.30 -2.79,333.50"/>
    </edge>
    <edge id=":J0_20" function="internal">
        <lane id=":J0_20_0" index="0" allow="pedestrian" speed="7.21" length="6.57" width="5.00" shape="24.87,333.27 25.31,336.05 26.61,338.04 27.82,338.70"/>
    </edge>
    <edge id=":J0_21" function="internal">
        <lane id=":J0_21_0" index="0" allow="pedestrian" speed="13.89" length="63.17" width="5.00" shape="24.87,333.27 24.88,396.46"/>
        <lane id=":J0_21_1" index="1" allow="bicycle" speed="13.89" length="63.17" width="2.00" shape="19.82,333.32 21.38,396.45"/>
    </edge>
    <edge id=":J0_23" function="internal">
        <lane id=":J0_23_0" index="0" disallow="pedestrian" speed="11.83" length="14.96" width="3.00" shape="13.69,333.39 14.83,342.92 17.23,347.71"/>
    </edge>
    <edge id=":J0_24" function="internal">
        <lane id=":J0_24_0" index="0" disallow="pedestrian" speed="13.89" length="63.03" width="3.50" shape="10.70,333.42 8.63,396.44"/>
        <lane id=":J0_24_1" index="1" disallow="pedestrian" speed="13.89" length="63.03" width="3.50" shape="7.73,333.46 5.13,396.44"/>
        <lane id=":J0_24_2" index="2" disallow="pedestrian" speed="13.89" length="63.03" width="3.50" shape="4.73,333.49 1.63,396.43"/>
    </edge>
    <edge id=":J0_27" function="internal">
        <lane id=":J0_27_0" index="0" disallow="pedestrian" speed="13.89" length="49.97" width="3.50" shape="1.55,333.52 -0.54,348.36 -6.76,358.95 -17.09,365.31 -27.55,366.84"/>
    </edge>
    <edge id=":J0_28" function="internal">
        <lane id=":J0_28_0" index="0" disallow="pedestrian" speed="4.03" length="6.33" width="3.75" shape="1.55,333.52 0.46,335.14 -0.63,335.68 -1.71,335.14 -2.79,333.50"/>
    </edge>
    <edge id=":J0_45" function="internal">
        <lane id=":J0_45_0" index="0" allow="pedestrian" speed="7.21" length="4.14" width="5.00" shape="27.82,338.70 28.77,339.23 31.80,339.63"/>
    </edge>
    <edge id=":J0_46" function="internal">
        <lane id=":J0_46_0" index="0" disallow="pedestrian" speed="11.83" length="17.34" width="3.00" shape="17.23,347.71 18.24,349.74 23.92,353.83 31.88,355.21"/>
    </edge>
    <edge id=":J0_47" function="internal">
        <lane id=":J0_47_0" index="0" disallow="pedestrian" speed="13.89" length="4.04" width="3.50" shape="-27.55,366.84 -31.55,367.43"/>
    </edge>
    <edge id=":J0_29" function="internal">
        <lane id=":J0_29_0" index="0" allow="pedestrian" speed="7.55" length="7.80" width="5.00" shape="-31.51,341.81 -28.84,341.27 -26.94,339.66 -25.92,337.28"/>
    </edge>
    <edge id=":J0_30" function="internal">
        <lane id=":J0_30_0" index="0" allow="pedestrian" speed="13.89" length="63.37" width="5.00" shape="-31.51,341.81 31.80,339.63"/>
        <lane id=":J0_30_1" index="1" allow="bicycle" speed="13.89" length="63.37" width="6.00" shape="-31.52,347.28 31.83,345.06"/>
    </edge>
    <edge id=":J0_32" function="internal">
        <lane id=":J0_32_0" index="0" disallow="pedestrian" speed="11.29" length="25.17" width="3.75" shape="-31.53,352.01 -23.88,350.83 -18.41,347.33 -15.13,341.50 -14.57,337.29"/>
    </edge>
    <edge id=":J0_33" function="internal">
        <lane id=":J0_33_0" index="0" disallow="pedestrian" speed="13.89" length="63.48" width="3.00" shape="-31.53,355.51 31.89,358.24"/>
        <lane id=":J0_33_1" index="1" disallow="pedestrian" speed="13.89" length="63.48" width="3.00" shape="-31.54,359.01 31.90,361.23"/>
    </edge>
    <edge id=":J0_35" function="internal">
        <lane id=":J0_35_0" index="0" disallow="pedestrian" speed="13.89" length="50.09" width="3.50" shape="-31.54,362.50 -17.04,364.59 -6.68,370.94 -0.46,381.55 1.07,392.43"/>
    </edge>
    <edge id=":J0_36" function="internal">
        <lane id=":J0_36_0" index="0" disallow="pedestrian" speed="4.31" length="7.20" width="3.50" shape="-31.54,362.50 -29.69,363.73 -29.08,364.97 -29.70,366.20 -31.55,367.43"/>
    </edge>
    <edge id=":J0_48" function="internal">
        <lane id=":J0_48_0" index="0" allow="pedestrian" speed="7.55" length="4.10" width="5.00" shape="-25.92,337.28 -25.79,336.98 -25.41,333.22"/>
    </edge>
    <edge id=":J0_49" function="internal">
        <lane id=":J0_49_0" index="0" disallow="pedestrian" speed="11.29" length="3.96" width="3.75" shape="-14.57,337.29 -14.04,333.36"/>
    </edge>
    <edge id=":J0_50" function="internal">
        <lane id=":J0_50_0" index="0" disallow="pedestrian" speed="13.89" length="4.04" width="3.50" shape="1.07,392.43 1.63,396.43"/>
    </edge>
    <edge id=":J0_c0" function="crossing" crossingEdges="E0 E13">
        <lane id=":J0_c0_0" index="0" allow="pedestrian" speed="2.78" length="46.99" width="4.00" shape="22.38,394.45 -24.61,394.41"/>
    </edge>
    <edge id=":J0_c1" function="crossing" crossingEdges="E7 E5">
        <lane id=":J0_c1_0" index="0" allow="pedestrian" speed="2.78" length="44.82" width="4.00" shape="29.83,342.06 30.01,386.88"/>
    </edge>
    <edge id=":J0_c2" function="crossing" crossingEdges="E16 E14">
        <lane id=":J0_c2_0" index="0" allow="pedestrian" speed="2.78" length="45.23" width="4.00" shape="-22.91,335.28 22.32,335.32"/>
    </edge>
    <edge id=":J0_c3" function="crossing" crossingEdges="E6 E9">
        <lane id=":J0_c3_0" index="0" allow="pedestrian" speed="2.78" length="43.05" width="4.00" shape="-29.57,387.32 -29.53,344.28"/>
    </edge>
    <edge id=":J0_w0" function="walkingarea">
        <lane id=":J0_w0_0" index="0" allow="pedestrian" speed="2.78" length="6.81" width="5.00" shape="-31.57,387.32 -31.58,387.15 -31.58,392.15 -29.60,396.40 -24.60,396.40 -24.81,393.63 -25.39,391.36 -26.36,389.59 -27.71,388.33 -29.45,387.57"/>
    </edge>
    <edge id=":J0_w1" function="walkingarea">
        <lane id=":J0_w1_0" index="0" allow="pedestrian" speed="2.78" length="8.17" width="5.00" shape="22.38,396.46 27.38,396.45 32.01,391.90 32.06,386.90 29.06,387.14 26.65,387.92 24.78,389.24 23.44,391.10 22.64,393.51"/>
    </edge>
    <edge id=":J0_w2" function="walkingarea">
        <lane id=":J0_w2_0" index="0" allow="pedestrian" speed="2.78" length="7.73" width="5.00" shape="31.80,342.13 31.80,337.13 27.37,333.27 22.37,333.27 22.59,335.99 23.38,338.17 24.70,339.87 26.55,341.09 28.93,341.82"/>
    </edge>
    <edge id=":J0_w3" function="walkingarea">
        <lane id=":J0_w3_0" index="0" allow="pedestrian" speed="2.78" length="8.45" width="5.00" shape="-22.91,333.22 -27.91,333.22 -31.51,339.31 -31.51,344.31 -28.90,343.97 -26.74,343.05 -25.07,341.52 -23.87,339.38 -23.15,336.64"/>
    </edge>
    <edge id=":J1_0" function="internal">
        <lane id=":J1_0_0" index="0" allow="pedestrian" speed="13.89" length="0.73" width="5.00" shape="24.98,480.83 24.98,481.13"/>
        <lane id=":J1_0_1" index="1" allow="bicycle" speed="13.89" length="0.73" width="2.00" shape="21.48,480.83 21.48,481.13"/>
        <lane id=":J1_0_2" index="2" disallow="pedestrian" speed="13.89" length="0.73" width="3.00" shape="18.98,480.84 18.98,481.14"/>
        <lane id=":J1_0_3" index="3" disallow="pedestrian" speed="13.89" length="0.73" width="3.00" shape="15.98,480.84 15.98,481.14"/>
        <lane id=":J1_0_4" index="4" disallow="pedestrian" speed="13.89" length="0.73" width="4.00" shape="8.73,480.85 12.48,481.14"/>
        <lane id=":J1_0_5" index="5" disallow="pedestrian" speed="13.89" length="0.73" width="3.50" shape="8.73,480.85 8.73,481.15"/>
        <lane id=":J1_0_6" index="6" disallow="pedestrian" speed="13.89" length="0.73" width="3.50" shape="5.23,480.85 5.23,481.15"/>
        <lane id=":J1_0_7" index="7" disallow="pedestrian" speed="13.89" length="0.73" width="3.50" shape="1.73,480.86 1.73,481.16"/>
    </edge>
    <edge id=":J1_w0" function="walkingarea">
        <lane id=":J1_w0_0" index="0" allow="pedestrian" speed="2.78" length="0.30" width="5.00" shape="22.48,481.13 27.48,481.12 27.48,480.83 22.48,480.83"/>
    </edge>
    <edge id=":J10_w0" function="walkingarea">
        <lane id=":J10_w0_0" index="0" allow="pedestrian" speed="2.78" length="47.87" width="5.00" shape="-302.40,344.35 -302.40,339.35 -302.39,392.22 -302.39,387.22"/>
    </edge>
    <edge id=":J11_0" function="internal">
        <lane id=":J11_0_0" index="0" allow="pedestrian" speed="13.89" length="15.96" width="5.00" shape="-26.98,471.22 -26.97,463.16"/>
        <lane id=":J11_0_1" index="1" allow="bicycle" speed="13.89" length="15.96" width="2.00" shape="-23.48,471.20 -23.51,463.12"/>
        <lane id=":J11_0_2" index="2" disallow="pedestrian" speed="13.89" length="15.96" width="3.00" shape="-20.98,471.19 -20.99,463.08"/>
        <lane id=":J11_0_3" index="3" disallow="pedestrian" speed="13.89" length="15.96" width="3.00" shape="-17.48,471.18 -17.97,452.74"/>
        <lane id=":J11_0_4" index="4" disallow="pedestrian" speed="13.89" length="15.96" width="3.50" shape="-9.48,471.14 -10.00,463.91 -11.08,459.01 -12.16,454.11 -12.66,446.87"/>
        <lane id=":J11_0_5" index="5" disallow="pedestrian" speed="13.89" length="15.96" width="3.50" shape="-9.48,471.14 -9.33,452.10"/>
        <lane id=":J11_0_6" index="6" disallow="pedestrian" speed="13.89" length="15.96" width="3.50" shape="-5.98,471.12 -6.52,465.44 -7.67,461.61 -8.81,457.79 -9.33,452.10"/>
        <lane id=":J11_0_7" index="7" disallow="pedestrian" speed="13.89" length="15.96" width="3.50" shape="-5.98,471.12 -5.82,452.11"/>
        <lane id=":J11_0_8" index="8" disallow="pedestrian" speed="13.89" length="15.96" width="3.50" shape="-2.48,471.11 -2.29,452.12"/>
    </edge>
    <edge id=":J11_w0" function="walkingarea">
        <lane id=":J11_w0_0" index="0" allow="pedestrian" speed="2.78" length="8.06" width="5.00" shape="-24.47,463.16 -29.47,463.16 -29.48,471.23 -24.48,471.21"/>
    </edge>
    <edge id=":J12_0" function="internal">
        <lane id=":J12_0_0" index="0" allow="pedestrian" speed="13.89" length="2.98" width="5.00" shape="-25.38,-497.83 -25.37,-500.92"/>
        <lane id=":J12_0_1" index="1" disallow="all" speed="13.89" length="2.98" width="2.00" shape="-16.88,-497.83 -16.88,-500.78"/>
        <lane id=":J12_0_2" index="2" allow="bicycle" speed="13.89" length="2.98" width="5.00" shape="-20.38,-497.83 -20.37,-500.88"/>
        <lane id=":J12_0_3" index="3" disallow="pedestrian" speed="13.89" length="2.98" width="3.00" shape="-14.38,-497.83 -14.37,-500.83"/>
        <lane id=":J12_0_4" index="4" disallow="pedestrian" speed="13.89" length="2.98" width="3.00" shape="-11.38,-497.83 -11.37,-500.80"/>
        <lane id=":J12_0_5" index="5" disallow="pedestrian" speed="13.89" length="2.98" width="3.00" shape="-8.38,-497.83 -8.37,-500.78"/>
        <lane id=":J12_0_6" index="6" disallow="pedestrian" speed="13.89" length="2.98" width="3.00" shape="-5.38,-497.83 -5.37,-500.75"/>
        <lane id=":J12_0_7" index="7" disallow="pedestrian" speed="13.89" length="2.98" width="3.00" shape="-2.38,-497.83 -2.37,-500.73"/>
    </edge>
    <edge id=":J12_w0" function="walkingarea">
        <lane id=":J12_w0_0" index="0" allow="pedestrian" speed="2.78" length="3.09" width="5.00" shape="-22.87,-500.90 -27.87,-500.94 -27.88,-497.83 -22.88,-497.83"/>
    </edge>
    <edge id=":J15_0" function="internal">
        <lane id=":J15_0_0" index="0" allow="pedestrian" speed="13.89" length="4.68" width="5.00" shape="24.73,289.54 24.80,294.16"/>
        <lane id=":J15_0_1" index="1" allow="bicycle" speed="13.89" length="4.68" width="5.00" shape="19.73,289.54 19.80,294.19"/>
        <lane id=":J15_0_2" index="2" disallow="pedestrian" speed="13.89" length="4.68" width="3.00" shape="13.73,289.55 13.68,294.22"/>
        <lane id=":J15_0_3" index="3" disallow="pedestrian" speed="13.89" length="4.68" width="3.00" shape="10.73,289.55 10.67,294.24"/>
        <lane id=":J15_0_4" index="4" disallow="pedestrian" speed="13.89" length="4.68" width="3.00" shape="7.73,289.55 7.67,294.25"/>
        <lane id=":J15_0_5" index="5" disallow="pedestrian" speed="13.89" length="4.68" width="3.00" shape="4.73,289.55 4.59,294.27"/>
        <lane id=":J15_0_6" index="6" disallow="pedestrian" speed="13.89" length="4.68" width="3.00" shape="1.73,289.55 1.63,294.28"/>
    </edge>
    <edge id=":J15_w0" function="walkingarea">
        <lane id=":J15_w0_0" index="0" allow="pedestrian" speed="2.78" length="4.62" width="5.00" shape="22.30,294.16 27.30,294.16 27.23,289.54 22.23,289.54"/>
    </edge>
    <edge id=":J16_0" function="internal">
        <lane id=":J16_0_0" index="0" allow="pedestrian" speed="7.35" length="7.08" width="5.00" shape="-25.35,-92.67 -25.83,-95.44 -27.24,-97.43 -28.87,-98.25"/>
    </edge>
    <edge id=":J16_1" function="internal">
        <lane id=":J16_1_0" index="0" allow="pedestrian" speed="13.89" length="30.67" width="5.00" shape="-25.35,-92.67 -25.38,-123.34"/>
    </edge>
    <edge id=":J16_2" function="internal">
        <lane id=":J16_2_0" index="0" allow="bicycle" speed="9.10" length="14.04" width="2.00" shape="-20.35,-92.68 -21.14,-96.99 -23.49,-100.06 -27.40,-101.90 -28.87,-102.06"/>
    </edge>
    <edge id=":J16_3" function="internal">
        <lane id=":J16_3_0" index="0" allow="bicycle" speed="13.89" length="30.69" width="5.00" shape="-20.35,-92.68 -20.38,-123.37"/>
    </edge>
    <edge id=":J16_4" function="internal">
        <lane id=":J16_4_0" index="0" disallow="pedestrian" speed="10.46" length="21.03" width="3.00" shape="-14.35,-92.70 -15.52,-98.09 -18.99,-101.94 -24.77,-104.24 -28.87,-104.63"/>
    </edge>
    <edge id=":J16_5" function="internal">
        <lane id=":J16_5_0" index="0" disallow="pedestrian" speed="13.89" length="30.79" width="3.75" shape="-11.35,-92.71 -10.26,-123.45"/>
        <lane id=":J16_5_1" index="1" disallow="pedestrian" speed="13.89" length="30.79" width="3.75" shape="-8.35,-92.72 -6.50,-123.47"/>
        <lane id=":J16_5_2" index="2" disallow="pedestrian" speed="13.89" length="30.79" width="3.75" shape="-5.35,-92.73 -2.75,-123.45"/>
    </edge>
    <edge id=":J16_8" function="internal">
        <lane id=":J16_8_0" index="0" disallow="pedestrian" speed="13.53" length="38.73" width="3.00" shape="-2.35,-92.74 -0.25,-100.74 6.08,-106.43 16.65,-109.84 27.47,-110.64"/>
    </edge>
    <edge id=":J16_9" function="internal">
        <lane id=":J16_9_0" index="0" disallow="pedestrian" speed="4.03" length="6.35" width="3.75" shape="-2.35,-92.74 -1.27,-94.38 -0.18,-94.93 0.91,-94.39 2.00,-92.76"/>
    </edge>
    <edge id=":J16_35" function="internal">
        <lane id=":J16_35_0" index="0" allow="pedestrian" speed="7.35" length="4.12" width="5.00" shape="-28.87,-98.25 -29.59,-98.61 -32.88,-99.01"/>
    </edge>
    <edge id=":J16_36" function="internal">
        <lane id=":J16_36_0" index="0" allow="bicycle" speed="9.10" length="4.03" width="2.00" shape="-28.87,-102.06 -32.87,-102.51"/>
    </edge>
    <edge id=":J16_37" function="internal">
        <lane id=":J16_37_0" index="0" disallow="pedestrian" speed="10.46" length="4.01" width="3.00" shape="-28.87,-104.63 -32.86,-105.01"/>
    </edge>
    <edge id=":J16_38" function="internal">
        <lane id=":J16_38_0" index="0" disallow="pedestrian" speed="13.53" length="4.00" width="3.00" shape="27.47,-110.64 31.45,-110.94"/>
    </edge>
    <edge id=":J16_10" function="internal">
        <lane id=":J16_10_0" index="0" allow="pedestrian" speed="7.20" length="5.94" width="5.00" shape="31.35,-98.98 28.41,-98.46 26.31,-97.27 26.01,-96.83"/>
    </edge>
    <edge id=":J16_11" function="internal">
        <lane id=":J16_11_0" index="0" allow="pedestrian" speed="13.89" length="64.23" width="5.00" shape="31.35,-98.98 -32.88,-99.01"/>
    </edge>
    <edge id=":J16_12" function="internal">
        <lane id=":J16_12_0" index="0" allow="bicycle" speed="8.81" length="13.03" width="2.00" shape="31.38,-102.49 26.24,-101.65 22.56,-99.76 20.36,-96.81"/>
    </edge>
    <edge id=":J16_13" function="internal">
        <lane id=":J16_13_0" index="0" allow="bicycle" speed="13.89" length="64.25" width="2.00" shape="31.38,-102.49 -32.87,-102.51"/>
    </edge>
    <edge id=":J16_14" function="internal">
        <lane id=":J16_14_0" index="0" disallow="pedestrian" speed="10.52" length="20.21" width="3.75" shape="31.40,-104.99 23.46,-103.87 17.79,-101.46 14.38,-97.77 14.16,-96.79"/>
    </edge>
    <edge id=":J16_15" function="internal">
        <lane id=":J16_15_0" index="0" disallow="pedestrian" speed="13.89" length="64.31" width="3.00" shape="31.40,-104.99 -32.86,-105.01"/>
        <lane id=":J16_15_1" index="1" disallow="pedestrian" speed="13.89" length="64.31" width="3.00" shape="31.43,-108.00 -32.86,-105.01"/>
    </edge>
    <edge id=":J16_17" function="internal">
        <lane id=":J16_17_0" index="0" disallow="pedestrian" speed="13.16" length="37.66" width="3.75" shape="31.43,-108.00 16.47,-108.28 5.79,-110.95 -0.62,-116.01 -1.59,-119.40"/>
    </edge>
    <edge id=":J16_39" function="internal">
        <lane id=":J16_39_0" index="0" allow="pedestrian" speed="7.20" length="4.33" width="5.00" shape="26.01,-96.83 25.04,-95.39 24.62,-92.83"/>
    </edge>
    <edge id=":J16_40" function="internal">
        <lane id=":J16_40_0" index="0" allow="bicycle" speed="8.81" length="4.06" width="2.00" shape="20.36,-96.81 19.62,-92.82"/>
    </edge>
    <edge id=":J16_41" function="internal">
        <lane id=":J16_41_0" index="0" disallow="pedestrian" speed="10.52" length="4.10" width="3.75" shape="14.16,-96.79 13.25,-92.79"/>
    </edge>
    <edge id=":J16_42" function="internal">
        <lane id=":J16_42_0" index="0" disallow="pedestrian" speed="13.16" length="4.22" width="3.75" shape="-1.59,-119.40 -2.75,-123.45"/>
    </edge>
    <edge id=":J16_18" function="internal">
        <lane id=":J16_18_0" index="0" allow="pedestrian" speed="7.21" length="6.51" width="5.00" shape="24.70,-123.43 25.13,-120.59 26.41,-118.56 27.48,-117.95"/>
    </edge>
    <edge id=":J16_19" function="internal">
        <lane id=":J16_19_0" index="0" allow="pedestrian" speed="13.89" length="30.60" width="5.00" shape="24.70,-123.43 24.62,-92.83"/>
    </edge>
    <edge id=":J16_20" function="internal">
        <lane id=":J16_20_0" index="0" allow="bicycle" speed="8.99" length="13.53" width="2.00" shape="19.70,-123.42 20.44,-119.07 22.64,-115.95 26.32,-114.08 27.47,-113.93"/>
    </edge>
    <edge id=":J16_21" function="internal">
        <lane id=":J16_21_0" index="0" allow="bicycle" speed="13.89" length="30.61" width="5.00" shape="19.70,-123.42 19.62,-92.82"/>
    </edge>
    <edge id=":J16_22" function="internal">
        <lane id=":J16_22_0" index="0" disallow="pedestrian" speed="10.36" length="20.50" width="3.00" shape="13.70,-123.42 14.81,-117.98 18.14,-114.08 23.69,-111.74 27.47,-111.35"/>
    </edge>
    <edge id=":J16_23" function="internal">
        <lane id=":J16_23_0" index="0" disallow="pedestrian" speed="13.89" length="30.72" width="3.75" shape="10.70,-123.41 9.50,-92.78"/>
        <lane id=":J16_23_1" index="1" disallow="pedestrian" speed="13.89" length="30.72" width="3.75" shape="7.70,-123.41 5.75,-92.77"/>
        <lane id=":J16_23_2" index="2" disallow="pedestrian" speed="13.89" length="30.72" width="3.75" shape="4.70,-123.41 4.28,-114.30 3.35,-108.09 2.42,-101.88 2.00,-92.76"/>
    </edge>
    <edge id=":J16_26" function="internal">
        <lane id=":J16_26_0" index="0" disallow="pedestrian" speed="13.67" length="39.50" width="3.00" shape="1.70,-123.43 -0.46,-115.38 -6.94,-109.62 -17.74,-106.17 -28.87,-105.32"/>
    </edge>
    <edge id=":J16_27" function="internal">
        <lane id=":J16_27_0" index="0" disallow="pedestrian" speed="4.07" length="6.51" width="3.75" shape="1.70,-123.43 0.58,-121.76 -0.54,-121.21 -1.65,-121.77 -2.75,-123.45"/>
    </edge>
    <edge id=":J16_43" function="internal">
        <lane id=":J16_43_0" index="0" allow="pedestrian" speed="7.21" length="4.23" width="5.00" shape="27.48,-117.95 28.54,-117.35 31.53,-116.94"/>
    </edge>
    <edge id=":J16_44" function="internal">
        <lane id=":J16_44_0" index="0" allow="bicycle" speed="8.99" length="4.03" width="2.00" shape="27.47,-113.93 31.47,-113.44"/>
    </edge>
    <edge id=":J16_45" function="internal">
        <lane id=":J16_45_0" index="0" disallow="pedestrian" speed="10.36" length="4.01" width="3.00" shape="27.47,-111.35 31.45,-110.94"/>
    </edge>
    <edge id=":J16_46" function="internal">
        <lane id=":J16_46_0" index="0" disallow="pedestrian" speed="13.67" length="4.00" width="3.00" shape="-28.87,-105.32 -32.86,-105.01"/>
    </edge>
    <edge id=":J16_28" function="internal">
        <lane id=":J16_28_0" index="0" allow="pedestrian" speed="7.42" length="6.79" width="5.00" shape="-32.80,-116.89 -29.56,-117.41 -27.24,-118.66 -26.74,-119.37"/>
    </edge>
    <edge id=":J16_29" function="internal">
        <lane id=":J16_29_0" index="0" allow="pedestrian" speed="13.89" length="64.33" width="5.00" shape="-32.80,-116.89 31.53,-116.94"/>
    </edge>
    <edge id=":J16_30" function="internal">
        <lane id=":J16_30_0" index="0" allow="bicycle" speed="8.98" length="13.86" width="2.00" shape="-32.82,-113.38 -27.38,-114.21 -23.49,-116.16 -21.16,-119.21 -21.13,-119.37"/>
    </edge>
    <edge id=":J16_31" function="internal">
        <lane id=":J16_31_0" index="0" allow="bicycle" speed="13.89" length="64.29" width="2.00" shape="-32.82,-113.38 31.47,-113.44"/>
    </edge>
    <edge id=":J16_32" function="internal">
        <lane id=":J16_32_0" index="0" disallow="pedestrian" speed="10.66" length="21.05" width="3.75" shape="-32.84,-110.88 -24.60,-111.98 -18.71,-114.43 -15.18,-118.25 -14.92,-119.38"/>
    </edge>
    <edge id=":J16_33" function="internal">
        <lane id=":J16_33_0" index="0" disallow="pedestrian" speed="13.89" length="64.37" width="3.00" shape="-32.85,-107.88 31.45,-110.94"/>
    </edge>
    <edge id=":J16_34" function="internal">
        <lane id=":J16_34_0" index="0" disallow="pedestrian" speed="13.25" length="37.97" width="3.75" shape="-32.85,-107.88 -17.60,-107.51 -6.72,-104.87 -0.18,-99.95 0.79,-96.75"/>
    </edge>
    <edge id=":J16_47" function="internal">
        <lane id=":J16_47_0" index="0" allow="pedestrian" speed="7.42" length="4.29" width="5.00" shape="-26.74,-119.37 -25.84,-120.64 -25.38,-123.34"/>
    </edge>
    <edge id=":J16_48" function="internal">
        <lane id=":J16_48_0" index="0" allow="bicycle" speed="8.98" length="4.07" width="2.00" shape="-21.13,-119.37 -20.38,-123.37"/>
    </edge>
    <edge id=":J16_49" function="internal">
        <lane id=":J16_49_0" index="0" disallow="pedestrian" speed="10.66" length="4.14" width="3.75" shape="-14.92,-119.38 -14.01,-123.42"/>
    </edge>
    <edge id=":J16_50" function="internal">
        <lane id=":J16_50_0" index="0" disallow="pedestrian" speed="13.25" length="4.17" width="3.75" shape="0.79,-96.75 2.00,-92.76"/>
    </edge>
    <edge id=":J16_c0" function="crossing" crossingEdges="E15 E17">
        <lane id=":J16_c0_0" index="0" allow="pedestrian" speed="2.78" length="44.98" width="4.00" shape="22.12,-94.82 -22.85,-94.68"/>
    </edge>
    <edge id=":J16_c1" function="crossing" crossingEdges="E20 E18">
        <lane id=":J16_c1_0" index="0" allow="pedestrian" speed="2.78" length="13.07" width="4.00" shape="29.47,-114.45 29.44,-101.38"/>
    </edge>