<routes>

<interval begin="0" end="899">

    <flow id="shoutinanlu_north_T2"         from="E10" departLane="best" vehsPerHour="273" type="vtd_shoutinanlu_north"/><!--首体南路-北进口-车辆构成-->
    <flow id="chegongzhuangxilu_west_T2"    from="E8" departLane="best" vehsPerHour="267" type="vtd_chegongzhuangxilu_west"/><!--车公庄西路口-西进口-车辆构成-->
    <flow id="chegongzhuangxilu_east_T2"    from="E3"  departLane="best" vehsPerHour="339" type="vtd_chegongzhuangxilu_east"/><!--车公庄西路口-东进口-车辆构成-->
    <flow id="zengguanglu_west_T2"          from="E23" departLane="best" vehsPerHour="164" type="vtd_zengguanglu_west"/><!--增光路口-西进口-车辆构成-->
    <flow id="zengguanglu_east_T2"          from="E19"  departLane="best" vehsPerHour="125" type="vtd_zengguanglu_east"/><!--增光路口-东进口-车辆构成-->
    <flow id="fuchenglu_west_T2"            from="E37" departLane="best" vehsPerHour="215" type="vtd_fuchenglu_west"/><!--阜成路口-西进口-车辆构成-->
    <flow id="fuchenglu_east_T2"            from="E33"  departLane="best" vehsPerHour="283" type="vtd_fuchenglu_east"/><!--阜成路口-东进口-车辆构成-->

</interval>

<interval begin="900" end="1799">

    <flow id="shoutinanlu_north_T3"         from="E10" departLane="best" vehsPerHour="285" type="vtd_shoutinanlu_north"/><!--首体南路-北进口-车辆构成-->
    <flow id="chegongzhuangxilu_west_T3"    from="E8" departLane="best" vehsPerHour="276" type="vtd_chegongzhuangxilu_west"/><!--车公庄西路口-西进口-车辆构成-->
    <flow id="chegongzhuangxilu_east_T3"    from="E3"  departLane="best" vehsPerHour="355" type="vtd_chegongzhuangxilu_east"/><!--车公庄西路口-东进口-车辆构成-->
    <flow id="zengguanglu_west_T3"          from="E23" departLane="best" vehsPerHour="64" type="vtd_zengguanglu_west"/><!--增光路口-西进口-车辆构成-->
    <flow id="zengguanglu_east_T3"          from="E19"  departLane="best" vehsPerHour="134" type="vtd_zengguanglu_east"/><!--增光路口-东进口-车辆构成-->
    <flow id="fuchenglu_west_T3"            from="E37" departLane="best" vehsPerHour="215" type="vtd_fuchenglu_west"/><!--阜成路口-西进口-车辆构成-->
    <flow id="fuchenglu_east_T3"            from="E33"  departLane="best" vehsPerHour="292" type="vtd_fuchenglu_east"/><!--阜成路口-东进口-车辆构成-->


</interval>

<interval begin="1800" end="2699">

    <flow id="shoutinanlu_north_T1"         from="E10" departLane="best" vehsPerHour="292" type="vtd_shoutinanlu_north"/><!--首体南路-北进口-车辆构成-->
    <flow id="chegongzhuangxilu_west_T1"    from="E8" departLane="best" vehsPerHour="280" type="vtd_chegongzhuangxilu_west"/><!--车公庄西路口-西进口-车辆构成-->
    <flow id="chegongzhuangxilu_east_T1"    from="E3"  departLane="best" vehsPerHour="334" type="vtd_chegongzhuangxilu_east"/><!--车公庄西路口-东进口-车辆构成-->
    <flow id="zengguanglu_west_T1"          from="E23" departLane="best" vehsPerHour="67" type="vtd_zengguanglu_west"/><!--增光路口-西进口-车辆构成-->
    <flow id="zengguanglu_east_T1"          from="E19"  departLane="best" vehsPerHour="135" type="vtd_zengguanglu_east"/><!--增光路口-东进口-车辆构成-->
    <flow id="fuchenglu_west_T1"            from="E37" departLane="best" vehsPerHour="207" type="vtd_fuchenglu_west"/><!--阜成路口-西进口-车辆构成-->
    <flow id="fuchenglu_east_T1"            from="E33"  departLane="best" vehsPerHour="289" type="vtd_fuchenglu_east"/><!--阜成路口-东进口-车辆构成-->

</interval>

<interval begin="2700" end="3599">

    <flow id="shoutinanlu_north_T4"         from="E10" departLane="best" vehsPerHour="305" type="vtd_shoutinanlu_north"/><!--首体南路-北进口-车辆构成-->
    <flow id="chegongzhuangxilu_west_T4"    from="E8" departLane="best" vehsPerHour="280" type="vtd_chegongzhuangxilu_west"/><!--车公庄西路口-西进口-车辆构成-->
    <flow id="chegongzhuangxilu_east_T4"    from="E3"  departLane="best" vehsPerHour="349" type="vtd_chegongzhuangxilu_east"/><!--车公庄西路口-东进口-车辆构成-->
    <flow id="zengguanglu_west_T4"          from="E23" departLane="best" vehsPerHour="74" type="vtd_zengguanglu_west"/><!--增光路口-西进口-车辆构成-->
    <flow id="zengguanglu_east_T4"          from="E19"  departLane="best" vehsPerHour="136" type="vtd_zengguanglu_east"/><!--增光路口-东进口-车辆构成-->
    <flow id="fuchenglu_west_T4"            from="E37" departLane="best" vehsPerHour="210" type="vtd_fuchenglu_west"/><!--阜成路口-西进口-车辆构成-->
    <flow id="fuchenglu_east_T4"            from="E33"  departLane="best" vehsPerHour="290" type="vtd_fuchenglu_east"/><!--阜成路口-东进口-车辆构成-->

</interval>
</routes>
