<?xml version="1.0" encoding="UTF-8"?>

<!-- generated on 03/24/21 17:11:01 by Eclipse SUMO netedit Version 1.3.1
<configuration xmlns:xsi="http://www.w3.org/2001/XMLSchema-instance" xsi:noNamespaceSchemaLocation="http://sumo.dlr.de/xsd/netconvertConfiguration.xsd">

    <input>
        <sumo-net-file value="C:\Users\10539\Documents\My_SUMO\6.A%20Simple%20Example(pedestrian)\ASimpleRoadNet.net.xml"/>
    </input>

    <output>
        <output-file value="C:\Users\10539\Documents\My_SUMO\6.A%20Simple%20Example(pedestrian)\ASimpleRoadNet.net.xml"/>
    </output>

    <processing>
        <geometry.max-grade.fix value="false"/>
        <offset.disable-normalization value="true"/>
        <opposites.guess.fix-lengths value="true"/>
        <lefthand value="false"/>
    </processing>

    <junctions>
        <no-turnarounds value="true"/>
        <junctions.corner-detail value="5"/>
        <junctions.limit-turn-speed value="5.5"/>
        <rectangular-lane-cut value="false"/>
    </junctions>

    <pedestrian>
        <walkingareas value="false"/>
    </pedestrian>

</configuration>
-->

<net version="1.3" junctionCornerDetail="5" limitTurnSpeed="5.50" xmlns:xsi="http://www.w3.org/2001/XMLSchema-instance" xsi:noNamespaceSchemaLocation="http://sumo.dlr.de/xsd/net_file.xsd">

    <location netOffset="0.00,0.00" convBoundary="-200.00,-100.00,1100.00,500.00" origBoundary="-10000000000.00,-10000000000.00,10000000000.00,10000000000.00" projParameter="!"/>

    <edge id=":gneJ2_0" function="internal">
        <lane id=":gneJ2_0_0" index="0" allow="pedestrian" speed="4.80" length="4.84" width="2.00" shape="192.60,213.60 192.41,212.29 191.85,211.35 190.91,210.79 189.60,210.60"/>
    </edge>
    <edge id=":gneJ2_1" function="internal">
        <lane id=":gneJ2_1_0" index="0" allow="pedestrian" speed="13.89" length="27.20" width="2.00" shape="192.60,213.60 192.60,186.40"/>
    </edge>
    <edge id=":gneJ2_2" function="internal">
        <lane id=":gneJ2_2_0" index="0" allow="pedestrian" speed="11.68" length="22.72" width="2.00" shape="192.60,213.60 194.27,206.07 198.54,198.17 202.62,193.74"/>
    </edge>
    <edge id=":gneJ2_3" function="internal">
        <lane id=":gneJ2_3_0" index="0" disallow="pedestrian" speed="6.51" length="4.75" shape="195.20,213.60 194.85,211.15 193.80,209.40 193.60,209.28"/>
    </edge>
    <edge id=":gneJ2_4" function="internal">
        <lane id=":gneJ2_4_0" index="0" disallow="pedestrian" speed="13.89" length="27.20" shape="195.20,213.60 195.20,186.40"/>
        <lane id=":gneJ2_4_1" index="1" disallow="pedestrian" speed="13.89" length="27.20" shape="198.40,213.60 198.40,186.40"/>
    </edge>
    <edge id=":gneJ2_6" function="internal">
        <lane id=":gneJ2_6_0" index="0" disallow="pedestrian" speed="9.84" length="8.68" shape="198.40,213.60 199.15,206.95 200.00,205.16"/>
    </edge>
    <edge id=":gneJ2_30" function="internal">
        <lane id=":gneJ2_30_0" index="0" allow="pedestrian" speed="11.68" length="9.07" width="2.00" shape="202.62,193.74 204.29,191.93 210.40,189.40"/>
    </edge>
    <edge id=":gneJ2_31" function="internal">
        <lane id=":gneJ2_31_0" index="0" disallow="pedestrian" speed="6.51" length="4.28" shape="193.60,209.28 192.05,208.35 189.60,208.00"/>
    </edge>
    <edge id=":gneJ2_32" function="internal">
        <lane id=":gneJ2_32_0" index="0" disallow="pedestrian" speed="9.84" length="13.32" shape="200.00,205.16 201.40,202.20 205.15,199.35 210.40,198.40"/>
    </edge>
    <edge id=":gneJ2_7" function="internal">
        <lane id=":gneJ2_7_0" index="0" allow="pedestrian" speed="4.80" length="4.84" width="2.00" shape="210.40,210.60 209.09,210.79 208.15,211.35 207.59,212.29 207.40,213.60"/>
    </edge>
    <edge id=":gneJ2_8" function="internal">
        <lane id=":gneJ2_8_0" index="0" allow="pedestrian" speed="13.89" length="20.80" width="2.00" shape="210.40,210.60 189.60,210.60"/>
    </edge>
    <edge id=":gneJ2_9" function="internal">
        <lane id=":gneJ2_9_0" index="0" allow="pedestrian" speed="11.68" length="2.40" width="2.00" shape="210.40,210.60 208.18,209.68"/>
    </edge>
    <edge id=":gneJ2_10" function="internal">
        <lane id=":gneJ2_10_0" index="0" disallow="pedestrian" speed="6.51" length="4.75" shape="210.40,208.00 207.95,208.35 206.20,209.40 206.08,209.60"/>
    </edge>
    <edge id=":gneJ2_11" function="internal">
        <lane id=":gneJ2_11_0" index="0" disallow="pedestrian" speed="13.89" length="20.80" shape="210.40,208.00 189.60,208.00"/>
        <lane id=":gneJ2_11_1" index="1" disallow="pedestrian" speed="13.89" length="20.80" shape="210.40,204.80 189.60,204.80"/>
        <lane id=":gneJ2_11_2" index="2" disallow="pedestrian" speed="13.89" length="20.80" shape="210.40,201.60 189.60,201.60"/>
    </edge>
    <edge id=":gneJ2_14" function="internal">
        <lane id=":gneJ2_14_0" index="0" disallow="pedestrian" speed="9.84" length="4.02" shape="210.40,201.60 206.44,200.88"/>
    </edge>
    <edge id=":gneJ2_33" function="internal">
        <lane id=":gneJ2_33_0" index="0" allow="pedestrian" speed="11.68" length="29.39" width="2.00" shape="208.18,209.68 204.29,208.07 198.54,201.83 194.27,193.93 192.60,186.40"/>
    </edge>
    <edge id=":gneJ2_34" function="internal">
        <lane id=":gneJ2_34_0" index="0" disallow="pedestrian" speed="6.51" length="4.28" shape="206.08,209.60 205.15,211.15 204.80,213.60"/>
    </edge>
    <edge id=":gneJ2_35" function="internal">
        <lane id=":gneJ2_35_0" index="0" disallow="pedestrian" speed="9.84" length="17.97" shape="206.44,200.88 205.15,200.65 201.40,197.80 199.15,193.05 198.40,186.40"/>
    </edge>
    <edge id=":gneJ2_15" function="internal">
        <lane id=":gneJ2_15_0" index="0" allow="pedestrian" speed="4.80" length="4.84" width="2.00" shape="207.40,186.40 207.59,187.71 208.15,188.65 209.09,189.21 210.40,189.40"/>
    </edge>
    <edge id=":gneJ2_16" function="internal">
        <lane id=":gneJ2_16_0" index="0" allow="pedestrian" speed="13.89" length="27.20" width="2.00" shape="207.40,186.40 207.40,213.60"/>
    </edge>
    <edge id=":gneJ2_17" function="internal">
        <lane id=":gneJ2_17_0" index="0" allow="pedestrian" speed="11.68" length="22.72" width="2.00" shape="207.40,186.40 205.73,193.93 201.46,201.83 197.38,206.26"/>
    </edge>
    <edge id=":gneJ2_18" function="internal">
        <lane id=":gneJ2_18_0" index="0" disallow="pedestrian" speed="6.51" length="4.75" shape="204.80,186.40 205.15,188.85 206.20,190.60 206.40,190.72"/>
    </edge>
    <edge id=":gneJ2_19" function="internal">
        <lane id=":gneJ2_19_0" index="0" disallow="pedestrian" speed="13.89" length="27.20" shape="204.80,186.40 204.80,213.60"/>
        <lane id=":gneJ2_19_1" index="1" disallow="pedestrian" speed="13.89" length="27.20" shape="201.60,186.40 201.60,213.60"/>
    </edge>
    <edge id=":gneJ2_21" function="internal">
        <lane id=":gneJ2_21_0" index="0" disallow="pedestrian" speed="9.84" length="8.68" shape="201.60,186.40 200.85,193.05 200.00,194.84"/>
    </edge>
    <edge id=":gneJ2_36" function="internal">
        <lane id=":gneJ2_36_0" index="0" allow="pedestrian" speed="11.68" length="9.07" width="2.00" shape="197.38,206.26 195.71,208.07 189.60,210.60"/>
    </edge>
    <edge id=":gneJ2_37" function="internal">
        <lane id=":gneJ2_37_0" index="0" disallow="pedestrian" speed="6.51" length="4.28" shape="206.40,190.72 207.95,191.65 210.40,192.00"/>
    </edge>
    <edge id=":gneJ2_38" function="internal">
        <lane id=":gneJ2_38_0" index="0" disallow="pedestrian" speed="9.84" length="13.32" shape="200.00,194.84 198.60,197.80 194.85,200.65 189.60,201.60"/>
    </edge>
    <edge id=":gneJ2_22" function="internal">
        <lane id=":gneJ2_22_0" index="0" allow="pedestrian" speed="4.80" length="4.84" width="2.00" shape="189.60,189.40 190.91,189.21 191.85,188.65 192.41,187.71 192.60,186.40"/>
    </edge>
    <edge id=":gneJ2_23" function="internal">
        <lane id=":gneJ2_23_0" index="0" allow="pedestrian" speed="13.89" length="20.80" width="2.00" shape="189.60,189.40 210.40,189.40"/>
    </edge>
    <edge id=":gneJ2_24" function="internal">
        <lane id=":gneJ2_24_0" index="0" allow="pedestrian" speed="11.68" length="2.40" width="2.00" shape="189.60,189.40 191.82,190.32"/>
    </edge>
    <edge id=":gneJ2_25" function="internal">
        <lane id=":gneJ2_25_0" index="0" disallow="pedestrian" speed="6.51" length="4.75" shape="189.60,192.00 192.05,191.65 193.80,190.60 193.92,190.40"/>
    </edge>
    <edge id=":gneJ2_26" function="internal">
        <lane id=":gneJ2_26_0" index="0" disallow="pedestrian" speed="13.89" length="20.80" shape="189.60,192.00 210.40,192.00"/>
        <lane id=":gneJ2_26_1" index="1" disallow="pedestrian" speed="13.89" length="20.80" shape="189.60,195.20 210.40,195.20"/>
        <lane id=":gneJ2_26_2" index="2" disallow="pedestrian" speed="13.89" length="20.80" shape="189.60,198.40 210.40,198.40"/>
    </edge>
    <edge id=":gneJ2_29" function="internal">
        <lane id=":gneJ2_29_0" index="0" disallow="pedestrian" speed="9.84" length="4.02" shape="189.60,198.40 193.56,199.12"/>
    </edge>
    <edge id=":gneJ2_39" function="internal">
        <lane id=":gneJ2_39_0" index="0" allow="pedestrian" speed="11.68" length="29.39" width="2.00" shape="191.82,190.32 195.71,191.93 201.46,198.17 205.73,206.07 207.40,213.60"/>
    </edge>
    <edge id=":gneJ2_40" function="internal">
        <lane id=":gneJ2_40_0" index="0" disallow="pedestrian" speed="6.51" length="4.28" shape="193.92,190.40 194.85,188.85 195.20,186.40"/>
    </edge>
    <edge id=":gneJ2_41" function="internal">
        <lane id=":gneJ2_41_0" index="0" disallow="pedestrian" speed="9.84" length="17.97" shape="193.56,199.12 194.85,199.35 198.60,202.20 200.85,206.95 201.60,213.60"/>
    </edge>
    <edge id=":gneJ4_0" function="internal">
        <lane id=":gneJ4_0_0" index="0" allow="pedestrian" speed="4.80" length="4.84" width="2.00" shape="592.60,213.60 592.41,212.29 591.85,211.35 590.91,210.79 589.60,210.60"/>
    </edge>
    <edge id=":gneJ4_1" function="internal">
        <lane id=":gneJ4_1_0" index="0" allow="pedestrian" speed="13.89" length="27.20" width="2.00" shape="592.60,213.60 592.60,186.40"/>
    </edge>
    <edge id=":gneJ4_2" function="internal">
        <lane id=":gneJ4_2_0" index="0" allow="pedestrian" speed="11.68" length="22.72" width="2.00" shape="592.60,213.60 594.27,206.07 598.54,198.17 602.62,193.74"/>
    </edge>
    <edge id=":gneJ4_3" function="internal">
        <lane id=":gneJ4_3_0" index="0" disallow="pedestrian" speed="6.51" length="4.75" shape="595.20,213.60 594.85,211.15 593.80,209.40 593.60,209.28"/>
    </edge>
    <edge id=":gneJ4_4" function="internal">
        <lane id=":gneJ4_4_0" index="0" disallow="pedestrian" speed="13.89" length="27.20" shape="595.20,213.60 595.20,186.40"/>
        <lane id=":gneJ4_4_1" index="1" disallow="pedestrian" speed="13.89" length="27.20" shape="598.40,213.60 598.40,186.40"/>
    </edge>
    <edge id=":gneJ4_6" function="internal">
        <lane id=":gneJ4_6_0" index="0" disallow="pedestrian" speed="9.84" length="8.68" shape="598.40,213.60 599.15,206.95 600.00,205.16"/>
    </edge>
    <edge id=":gneJ4_30" function="internal">
        <lane id=":gneJ4_30_0" index="0" allow="pedestrian" speed="11.68" length="9.07" width="2.00" shape="602.62,193.74 604.29,191.93 610.40,189.40"/>
    </edge>
    <edge id=":gneJ4_31" function="internal">
        <lane id=":gneJ4_31_0" index="0" disallow="pedestrian" speed="6.51" length="4.28" shape="593.60,209.28 592.05,208.35 589.60,208.00"/>
    </edge>
    <edge id=":gneJ4_32" function="internal">
        <lane id=":gneJ4_32_0" index="0" disallow="pedestrian" speed="9.84" length="13.32" shape="600.00,205.16 601.40,202.20 605.15,199.35 610.40,198.40"/>
    </edge>
    <edge id=":gneJ4_7" function="internal">
        <lane id=":gneJ4_7_0" index="0" allow="pedestrian" speed="4.80" length="4.84" width="2.00" shape="610.40,210.60 609.09,210.79 608.15,211.35 607.59,212.29 607.40,213.60"/>
    </edge>
    <edge id=":gneJ4_8" function="internal">
        <lane id=":gneJ4_8_0" index="0" allow="pedestrian" speed="13.89" length="20.80" width="2.00" shape="610.40,210.60 589.60,210.60"/>
    </edge>
    <edge id=":gneJ4_9" function="internal">
        <lane id=":gneJ4_9_0" index="0" allow="pedestrian" speed="11.68" length="2.40" width="2.00" shape="610.40,210.60 608.18,209.68"/>
    </edge>
    <edge id=":gneJ4_10" function="internal">
        <lane id=":gneJ4_10_0" index="0" disallow="pedestrian" speed="6.51" length="4.75" shape="610.40,208.00 607.95,208.35 606.20,209.40 606.08,209.60"/>
    </edge>
    <edge id=":gneJ4_11" function="internal">
        <lane id=":gneJ4_11_0" index="0" disallow="pedestrian" speed="13.89" length="20.80" shape="610.40,208.00 589.60,208.00"/>
        <lane id=":gneJ4_11_1" index="1" disallow="pedestrian" speed="13.89" length="20.80" shape="610.40,204.80 589.60,204.80"/>
        <lane id=":gneJ4_11_2" index="2" disallow="pedestrian" speed="13.89" length="20.80" shape="610.40,201.60 589.60,201.60"/>
    </edge>
    <edge id=":gneJ4_14" function="internal">
        <lane id=":gneJ4_14_0" index="0" disallow="pedestrian" speed="9.84" length="4.02" shape="610.40,201.60 606.44,200.88"/>
    </edge>
    <edge id=":gneJ4_33" function="internal">
        <lane id=":gneJ4_33_0" index="0" allow="pedestrian" speed="11.68" length="29.39" width="2.00" shape="608.18,209.68 604.29,208.07 598.54,201.83 594.27,193.93 592.60,186.40"/>
    </edge>
    <edge id=":gneJ4_34" function="internal">
        <lane id=":gneJ4_34_0" index="0" disallow="pedestrian" speed="6.51" length="4.28" shape="606.08,209.60 605.15,211.15 604.80,213.60"/>
    </edge>
    <edge id=":gneJ4_35" function="internal">
        <lane id=":gneJ4_35_0" index="0" disallow="pedestrian" speed="9.84" length="17.97" shape="606.44,200.88 605.15,200.65 601.40,197.80 599.15,193.05 598.40,186.40"/>
    </edge>
    <edge id=":gneJ4_15" function="internal">
        <lane id=":gneJ4_15_0" index="0" allow="pedestrian" speed="4.80" length="4.84" width="2.00" shape="607.40,186.40 607.59,187.71 608.15,188.65 609.09,189.21 610.40,189.40"/>
    </edge>
    <edge id=":gneJ4_16" function="internal">
        <lane id=":gneJ4_16_0" index="0" allow="pedestrian" speed="13.89" length="27.20" width="2.00" shape="607.40,186.40 607.40,213.60"/>
    </edge>
    <edge id=":gneJ4_17" function="internal">
        <lane id=":gneJ4_17_0" index="0" allow="pedestrian" speed="11.68" length="22.72" width="2.00" shape="607.40,186.40 605.73,193.93 601.46,201.83 597.38,206.26"/>
    </edge>
    <edge id=":gneJ4_18" function="internal">
        <lane id=":gneJ4_18_0" index="0" disallow="pedestrian" speed="6.51" length="4.75" shape="604.80,186.40 605.15,188.85 606.20,190.60 606.40,190.72"/>
    </edge>
    <edge id=":gneJ4_19" function="internal">
        <lane id=":gneJ4_19_0" index="0" disallow="pedestrian" speed="13.89" length="27.20" shape="604.80,186.40 604.80,213.60"/>
        <lane id=":gneJ4_19_1" index="1" disallow="pedestrian" speed="13.89" length="27.20" shape="601.60,186.40 601.60,213.60"/>
    </edge>
    <edge id=":gneJ4_21" function="internal">
        <lane id=":gneJ4_21_0" index="0" disallow="pedestrian" speed="9.84" length="8.68" shape="601.60,186.40 600.85,193.05 600.00,194.84"/>
    </edge>
    <edge id=":gneJ4_36" function="internal">
        <lane id=":gneJ4_36_0" index="0" allow="pedestrian" speed="11.68" length="9.07" width="2.00" shape="597.38,206.26 595.71,208.07 589.60,210.60"/>
    </edge>
    <edge id=":gneJ4_37" function="internal">
        <lane id=":gneJ4_37_0" index="0" disallow="pedestrian" speed="6.51" length="4.28" shape="606.40,190.72 607.95,191.65 610.40,192.00"/>
    </edge>
    <edge id=":gneJ4_38" function="internal">
        <lane id=":gneJ4_38_0" index="0" disallow="pedestrian" speed="9.84" length="13.32" shape="600.00,194.84 598.60,197.80 594.85,200.65 589.60,201.60"/>
    </edge>
    <edge id=":gneJ4_22" function="internal">
        <lane id=":gneJ4_22_0" index="0" allow="pedestrian" speed="4.80" length="4.84" width="2.00" shape="589.60,189.40 590.91,189.21 591.85,188.65 592.41,187.71 592.60,186.40"/>
    </edge>
    <edge id=":gneJ4_23" function="internal">
        <lane id=":gneJ4_23_0" index="0" allow="pedestrian" speed="13.89" length="20.80" width="2.00" shape="589.60,189.40 610.40,189.40"/>
    </edge>
    <edge id=":gneJ4_24" function="internal">
        <lane id=":gneJ4_24_0" index="0" allow="pedestrian" speed="11.68" length="2.40" width="2.00" shape="589.60,189.40 591.82,190.32"/>
    </edge>
    <edge id=":gneJ4_25" function="internal">
        <lane id=":gneJ4_25_0" index="0" disallow="pedestrian" speed="6.51" length="4.75" shape="589.60,192.00 592.05,191.65 593.80,190.60 593.92,190.40"/>
    </edge>
    <edge id=":gneJ4_26" function="internal">
        <lane id=":gneJ4_26_0" index="0" disallow="pedestrian" speed="13.89" length="20.80" shape="589.60,192.00 610.40,192.00"/>
        <lane id=":gneJ4_26_1" index="1" disallow="pedestrian" speed="13.89" length="20.80" shape="589.60,195.20 610.40,195.20"/>
        <lane id=":gneJ4_26_2" index="2" disallow="pedestrian" speed="13.89" length="20.80" shape="589.60,198.40 610.40,198.40"/>
    </edge>
    <edge id=":gneJ4_29" function="internal">
        <lane id=":gneJ4_29_0" index="0" disallow="pedestrian" speed="9.84" length="4.02" shape="589.60,198.40 593.56,199.12"/>
    </edge>
    <edge id=":gneJ4_39" function="internal">
        <lane id=":gneJ4_39_0" index="0" allow="pedestrian" speed="11.68" length="29.39" width="2.00" shape="591.82,190.32 595.71,191.93 601.46,198.17 605.73,206.07 607.40,213.60"/>
    </edge>
    <edge id=":gneJ4_40" function="internal">
        <lane id=":gneJ4_40_0" index="0" disallow="pedestrian" speed="6.51" length="4.28" shape="593.92,190.40 594.85,188.85 595.20,186.40"/>
    </edge>
    <edge id=":gneJ4_41" function="internal">
        <lane id=":gneJ4_41_0" index="0" disallow="pedestrian" speed="9.84" length="17.97" shape="593.56,199.12 594.85,199.35 598.60,202.20 600.85,206.95 601.60,213.60"/>
    </edge>

    <edge id="gneE0" from="gneJ1" to="gneJ2" priority="-1">
        <lane id="gneE0_0" index="0" allow="pedestrian" speed="13.89" length="389.60" width="2.00" shape="-200.00,189.40 189.60,189.40"/>
        <lane id="gneE0_1" index="1" disallow="pedestrian" speed="13.89" length="389.60" shape="-200.00,192.00 189.60,192.00"/>
        <lane id="gneE0_2" index="2" disallow="pedestrian" speed="13.89" length="389.60" shape="-200.00,195.20 189.60,195.20"/>
        <lane id="gneE0_3" index="3" disallow="pedestrian" speed="13.89" length="389.60" shape="-200.00,198.40 189.60,198.40"/>
    </edge>
    <edge id="gneE1" from="gneJ2" to="gneJ1" priority="-1">
        <lane id="gneE1_0" index="0" allow="pedestrian" speed="13.89" length="389.60" width="2.00" shape="189.60,210.60 -200.00,210.60"/>
        <lane id="gneE1_1" index="1" disallow="pedestrian" speed="13.89" length="389.60" shape="189.60,208.00 -200.00,208.00"/>
        <lane id="gneE1_2" index="2" disallow="pedestrian" speed="13.89" length="389.60" shape="189.60,204.80 -200.00,204.80"/>
        <lane id="gneE1_3" index="3" disallow="pedestrian" speed="13.89" length="389.60" shape="189.60,201.60 -200.00,201.60"/>
    </edge>
    <edge id="gneE10" from="gneJ4" to="gneJ8" priority="-1">
        <lane id="gneE10_0" index="0" allow="pedestrian" speed="13.89" length="286.40" width="2.00" shape="592.60,186.40 592.60,-100.00"/>
        <lane id="gneE10_1" index="1" disallow="pedestrian" speed="13.89" length="286.40" shape="595.20,186.40 595.20,-100.00"/>
        <lane id="gneE10_2" index="2" disallow="pedestrian" speed="13.89" length="286.40" shape="598.40,186.40 598.40,-100.00"/>
    </edge>
    <edge id="gneE11" from="gneJ8" to="gneJ4" priority="-1">
        <lane id="gneE11_0" index="0" allow="pedestrian" speed="13.89" length="286.40" width="2.00" shape="607.40,-100.00 607.40,186.40"/>
        <lane id="gneE11_1" index="1" disallow="pedestrian" speed="13.89" length="286.40" shape="604.80,-100.00 604.80,186.40"/>
        <lane id="gneE11_2" index="2" disallow="pedestrian" speed="13.89" length="286.40" shape="601.60,-100.00 601.60,186.40"/>
    </edge>
    <edge id="gneE12" from="gneJ4" to="gneJ9" priority="-1">
        <lane id="gneE12_0" index="0" allow="pedestrian" speed="13.89" length="489.60" width="2.00" shape="610.40,189.40 1100.00,189.40"/>
        <lane id="gneE12_1" index="1" disallow="pedestrian" speed="13.89" length="489.60" shape="610.40,192.00 1100.00,192.00"/>
        <lane id="gneE12_2" index="2" disallow="pedestrian" speed="13.89" length="489.60" shape="610.40,195.20 1100.00,195.20"/>
        <lane id="gneE12_3" index="3" disallow="pedestrian" speed="13.89" length="489.60" shape="610.40,198.40 1100.00,198.40"/>
    </edge>
    <edge id="gneE13" from="gneJ9" to="gneJ4" priority="-1">
        <lane id="gneE13_0" index="0" allow="pedestrian" speed="13.89" length="489.60" width="2.00" shape="1100.00,210.60 610.40,210.60"/>
        <lane id="gneE13_1" index="1" disallow="pedestrian" speed="13.89" length="489.60" shape="1100.00,208.00 610.40,208.00"/>
        <lane id="gneE13_2" index="2" disallow="pedestrian" speed="13.89" length="489.60" shape="1100.00,204.80 610.40,204.80"/>
        <lane id="gneE13_3" index="3" disallow="pedestrian" speed="13.89" length="489.60" shape="1100.00,201.60 610.40,201.60"/>
    </edge>
    <edge id="gneE2" from="gneJ2" to="gneJ3" priority="-1">
        <lane id="gneE2_0" index="0" allow="pedestrian" speed="13.89" length="286.40" width="2.00" shape="192.60,186.40 192.60,-100.00"/>
        <lane id="gneE2_1" index="1" disallow="pedestrian" speed="13.89" length="286.40" shape="195.20,186.40 195.20,-100.00"/>
        <lane id="gneE2_2" index="2" disallow="pedestrian" speed="13.89" length="286.40" shape="198.40,186.40 198.40,-100.00"/>
    </edge>
    <edge id="gneE3" from="gneJ3" to="gneJ2" priority="-1">
        <lane id="gneE3_0" index="0" allow="pedestrian" speed="13.89" length="286.40" width="2.00" shape="207.40,-100.00 207.40,186.40"/>
        <lane id="gneE3_1" index="1" disallow="pedestrian" speed="13.89" length="286.40" shape="204.80,-100.00 204.80,186.40"/>
        <lane id="gneE3_2" index="2" disallow="pedestrian" speed="13.89" length="286.40" shape="201.60,-100.00 201.60,186.40"/>
    </edge>
    <edge id="gneE4" from="gneJ2" to="gneJ4" priority="-1">
        <lane id="gneE4_0" index="0" allow="pedestrian" speed="13.89" length="379.20" width="2.00" shape="210.40,189.40 589.60,189.40"/>
        <lane id="gneE4_1" index="1" disallow="pedestrian" speed="13.89" length="379.20" shape="210.40,192.00 589.60,192.00"/>
        <lane id="gneE4_2" index="2" disallow="pedestrian" speed="13.89" length="379.20" shape="210.40,195.20 589.60,195.20"/>
        <lane id="gneE4_3" index="3" disallow="pedestrian" speed="13.89" length="379.20" shape="210.40,198.40 589.60,198.40"/>
    </edge>
    <edge id="gneE5" from="gneJ4" to="gneJ2" priority="-1">
        <lane id="gneE5_0" index="0" allow="pedestrian" speed="13.89" length="379.20" width="2.00" shape="589.60,210.60 210.40,210.60"/>
        <lane id="gneE5_1" index="1" disallow="pedestrian" speed="13.89" length="379.20" shape="589.60,208.00 210.40,208.00"/>
        <lane id="gneE5_2" index="2" disallow="pedestrian" speed="13.89" length="379.20" shape="589.60,204.80 210.40,204.80"/>
        <lane id="gneE5_3" index="3" disallow="pedestrian" speed="13.89" length="379.20" shape="589.60,201.60 210.40,201.60"/>
    </edge>
    <edge id="gneE6" from="gneJ2" to="gneJ5" priority="-1">
        <lane id="gneE6_0" index="0" allow="pedestrian" speed="13.89" length="286.40" width="2.00" shape="207.40,213.60 207.40,500.00"/>
        <lane id="gneE6_1" index="1" disallow="pedestrian" speed="13.89" length="286.40" shape="204.80,213.60 204.80,500.00"/>
        <lane id="gneE6_2" index="2" disallow="pedestrian" speed="13.89" length="286.40" shape="201.60,213.60 201.60,500.00"/>
    </edge>
    <edge id="gneE7" from="gneJ5" to="gneJ2" priority="-1">
        <lane id="gneE7_0" index="0" allow="pedestrian" speed="13.89" length="286.40" width="2.00" shape="192.60,500.00 192.60,213.60"/>
        <lane id="gneE7_1" index="1" disallow="pedestrian" speed="13.89" length="286.40" shape="195.20,500.00 195.20,213.60"/>
        <lane id="gneE7_2" index="2" disallow="pedestrian" speed="13.89" length="286.40" shape="198.40,500.00 198.40,213.60"/>
    </edge>
    <edge id="gneE8" from="gneJ4" to="gneJ7" priority="-1">
        <lane id="gneE8_0" index="0" allow="pedestrian" speed="13.89" length="286.40" width="2.00" shape="607.40,213.60 607.40,500.00"/>
        <lane id="gneE8_1" index="1" disallow="pedestrian" speed="13.89" length="286.40" shape="604.80,213.60 604.80,500.00"/>
        <lane id="gneE8_2" index="2" disallow="pedestrian" speed="13.89" length="286.40" shape="601.60,213.60 601.60,500.00"/>
    </edge>
    <edge id="gneE9" from="gneJ7" to="gneJ4" priority="-1">
        <lane id="gneE9_0" index="0" allow="pedestrian" speed="13.89" length="286.40" width="2.00" shape="592.60,500.00 592.60,213.60"/>
        <lane id="gneE9_1" index="1" disallow="pedestrian" speed="13.89" length="286.40" shape="595.20,500.00 595.20,213.60"/>
        <lane id="gneE9_2" index="2" disallow="pedestrian" speed="13.89" length="286.40" shape="598.40,500.00 598.40,213.60"/>
    </edge>

    <tlLogic id="gneJ2" type="static" programID="0" offset="0">
        <phase duration="42" state="rrrrrrrGGggGGGgrrrrrrrGGggGGGg"/>
        <phase duration="3"  state="rrrrrrryyyyyyyyrrrrrrryyyyyyyy"/>
        <phase duration="42" state="GGggGGgrrrrrrrrGGggGGgrrrrrrrr"/>
        <phase duration="3"  state="yyyyyyyrrrrrrrryyyyyyyrrrrrrrr"/>
    </tlLogic>
    <tlLogic id="gneJ4" type="static" programID="0" offset="0">
        <phase duration="42" state="rrrrrrrGGggGGGgrrrrrrrGGggGGGg"/>
        <phase duration="3"  state="rrrrrrryyyyyyyyrrrrrrryyyyyyyy"/>
        <phase duration="42" state="GGggGGgrrrrrrrrGGggGGgrrrrrrrr"/>
        <phase duration="3"  state="yyyyyyyrrrrrrrryyyyyyyrrrrrrrr"/>
    </tlLogic>

    <junction id="gneJ1" type="dead_end" x="-200.00" y="200.00" incLanes="gneE1_0 gneE1_1 gneE1_2 gneE1_3" intLanes="" shape="-200.00,200.00 -200.00,211.60 -200.00,200.00"/>
    <junction id="gneJ2" type="traffic_light" x="200.00" y="200.00" incLanes="gneE7_0 gneE7_1 gneE7_2 gneE5_0 gneE5_1 gneE5_2 gneE5_3 gneE3_0 gneE3_1 gneE3_2 gneE0_0 gneE0_1 gneE0_2 gneE0_3" intLanes=":gneJ2_0_0 :gneJ2_1_0 :gneJ2_30_0 :gneJ2_31_0 :gneJ2_4_0 :gneJ2_4_1 :gneJ2_32_0 :gneJ2_7_0 :gneJ2_8_0 :gneJ2_33_0 :gneJ2_34_0 :gneJ2_11_0 :gneJ2_11_1 :gneJ2_11_2 :gneJ2_35_0 :gneJ2_15_0 :gneJ2_16_0 :gneJ2_36_0 :gneJ2_37_0 :gneJ2_19_0 :gneJ2_19_1 :gneJ2_38_0 :gneJ2_22_0 :gneJ2_23_0 :gneJ2_39_0 :gneJ2_40_0 :gneJ2_26_0 :gneJ2_26_1 :gneJ2_26_2 :gneJ2_41_0" shape="191.60,213.60 208.40,213.60 208.62,212.49 208.90,212.10 209.29,211.82 209.79,211.66 210.40,211.60 210.40,188.40 209.29,188.18 208.90,187.90 208.62,187.51 208.46,187.01 208.40,186.40 191.60,186.40 191.38,187.51 191.10,187.90 190.71,188.18 190.21,188.34 189.60,188.40 189.60,211.60 190.71,211.82 191.10,212.10 191.38,212.49 191.54,212.99">
        <request index="0"  response="000000000000000000000100000000" foes="000000000000100000000100000000" cont="0"/>
        <request index="1"  response="111111110000000011101100000000" foes="111111111000100011101100001000" cont="0"/>
        <request index="2"  response="111101100111011111101100110000" foes="111101101111111111101100111000" cont="1"/>
        <request index="3"  response="000000000000000011100100000110" foes="000000001000100011100100000110" cont="1"/>
        <request index="4"  response="111111100000000111101100000000" foes="111111101000100111101100000100" cont="0"/>
        <request index="5"  response="111111100000000111101100000000" foes="111111101000100111101100000100" cont="0"/>
        <request index="6"  response="111101000111010111101100000000" foes="111101000111110111101100000000" cont="1"/>
        <request index="7"  response="000000000000000000000000000000" foes="000001000000010000000000000000" cont="0"/>
        <request index="8"  response="000000000000100000000001001100" foes="100001000110110000010001111111" cont="0"/>
        <request index="9"  response="011110111000100011100001000100" foes="111111111110110011110001110110" cont="1"/>
        <request index="10" response="000000000000000000001100000000" foes="100001000110010000001100000000" cont="1"/>
        <request index="11" response="000000001000100000000001001100" foes="100001001110110000001001111110" cont="0"/>
        <request index="12" response="000000001000100000000001001100" foes="100001001110110000001001111110" cont="0"/>
        <request index="13" response="000000001000100000000001001100" foes="100001001110110000001001111110" cont="0"/>
        <request index="14" response="011110101000100000000001000100" foes="011111101110110000000001110100" cont="1"/>
        <request index="15" response="000000100000000000000000000000" foes="000000100000000000000000000100" cont="0"/>
        <request index="16" response="011101100000000111111110000000" foes="011101100001000111111111000100" cont="0"/>
        <request index="17" response="111101100110000111101101111111" foes="111101100111000111101101111111" cont="1"/>
        <request index="18" response="011100100000110000000000000000" foes="011100100000110000000001000100" cont="1"/>
        <request index="19" response="111101100000000111111100000000" foes="111101100000100111111101000100" cont="0"/>
        <request index="20" response="111101100000000111111100000000" foes="111101100000100111111101000100" cont="0"/>
        <request index="21" response="111101100000000111101000111110" foes="111101100000000111101000111110" cont="1"/>
        <request index="22" response="000000000000000000000000000000" foes="000000000000000000001000000010" cont="0"/>