<?xml version="1.0" encoding="UTF-8"?>

<!-- generated on 03/24/21 17:11:40 by Eclipse SUMO netedit Version 1.3.1
<configuration xmlns:xsi="http://www.w3.org/2001/XMLSchema-instance" xsi:noNamespaceSchemaLocation="http://sumo.dlr.de/xsd/netconvertConfiguration.xsd">

    <input>
        <sumo-net-file value="C:\Users\10539\Documents\My_SUMO\6.A%20Simple%20Example(pedestrian)\ASimpleRoadNet.net.xml"/>
    </input>

    <output>
        <output-file value="C:\Users\10539\Documents\My_SUMO\6.A%20Simple%20Example(pedestrian)\ASimpleRoadNet.net.xml"/>
    </output>

    <processing>
        <geometry.max-grade.fix value="false"/>
        <offset.disable-normalization value="true"/>
        <opposites.guess.fix-lengths value="true"/>
        <lefthand value="false"/>
    </processing>

    <junctions>
        <no-turnarounds value="true"/>
        <junctions.corner-detail value="5"/>
        <junctions.limit-turn-speed value="5.5"/>
        <rectangular-lane-cut value="false"/>
    </junctions>

    <pedestrian>
        <walkingareas value="false"/>
    </pedestrian>

    <netedit>
        <route-files value="C:\Users\10539\Documents\My_SUMO\6.A%20Simple%20Example(pedestrian)\pedestrians_plans.xml"/>
    </netedit>

</configuration>
-->

<routes xmlns:xsi="http://www.w3.org/2001/XMLSchema-instance" xsi:noNamespaceSchemaLocation="http://sumo.dlr.de/xsd/routes_file.xsd">
    <personFlow id="personFlow_0" begin="0.00" end="3600.00" number="1800">
        <walk edges="gneE3"/>
    </personFlow>
    <personFlow id="personFlow_1" begin="0.00" end="3600.00" number="1800">
        <walk from="gneE9" to="gneE12"/>
    </personFlow>
    <personFlow id="personFlow_2" begin="0.00" end="3600.00" period="2.00">
        <walk from="gneE12" to="gneE6"/>
    </personFlow>
    <personFlow id="personFlow_3" begin="0.00" end="3600.00" period="2.00">
        <walk from="gneE0" to="gneE2"/>
    </personFlow>
</routes>
