<?xml version="1.0" encoding="UTF-8"?>

<!-- generated on 2024-04-29 21:35:34 by Eclipse SUMO jtrrouter Version 1.19.0
<configuration xmlns:xsi="http://www.w3.org/2001/XMLSchema-instance" xsi:noNamespaceSchemaLocation="http://sumo.dlr.de/xsd/jtrrouterConfiguration.xsd">

    <input>
        <net-file value="4.net.xml"/>
        <route-files value="vtype_def.xml,vdistribution_def.xml,v_vehs.flows.xml"/>
        <turn-ratio-files value="v_vehs.turns.xml"/>
    </input>

    <output>
        <output-file value="v_vehs.rou.xml"/>
    </output>

    <processing>
        <accept-all-destinations value="true"/>
    </processing>

</configuration>
-->

<routes xmlns:xsi="http://www.w3.org/2001/XMLSchema-instance" xsi:noNamespaceSchemaLocation="http://sumo.dlr.de/xsd/routes_file.xsd">
    <vType id="vt_car" maxSpeed="15.00" vClass="passenger" color="yellow" jmCrossingGap="8"/>
    <vehicle id="chegongzhuangxilu_east_T2.0" type="vt_car" depart="0.00" departLane="best">
        <route edges="E3 E4 E5 E6"/>
    </vehicle>
    <vehicle id="chegongzhuangxilu_west_T2.0" type="vt_car" depart="0.00" departLane="best">
        <route edges="E8 E9 E16 E17 E29 E30 E35"/>
    </vehicle>
    <vehicle id="fuchenglu_east_T2.0" type="vt_car" depart="0.00" departLane="best">
        <route edges="E33 E34 E35"/>
    </vehicle>
    <vehicle id="fuchenglu_west_T2.0" type="vt_car" depart="0.00" departLane="best">
        <route edges="E37 E38 E36"/>
    </vehicle>
    <vehicle id="shoutinanlu_north_T2.0" type="vt_car" depart="0.00" departLane="best">
        <route edges="E10 E11 E12 E13 E16 E17 E29 E30 E35"/>
    </vehicle>
    <vehicle id="zengguanglu_east_T2.0" type="vt_car" depart="0.00" departLane="best">
        <route edges="E19 E18 E29 E30 E36"/>
    </vehicle>
    <vehicle id="zengguanglu_west_T2.0" type="vt_car" depart="0.00" departLane="best">
        <route edges="E23 E22 E29 E30 E36"/>
    </vehicle>
    <vehicle id="shoutinanlu_north_T2.1" type="vt_car" depart="9.30" departLane="best">
        <route edges="E10 E11 E12 E13 E16 E17 E29 E30 E35"/>
    </vehicle>
    <vehicle id="chegongzhuangxilu_east_T2.1" type="vt_car" depart="9.52" departLane="best">
        <route edges="E3 E4 E5 E6"/>
    </vehicle>
    <vehicle id="fuchenglu_east_T2.1" type="vt_car" depart="14.94" departLane="best">
        <route edges="E33 E34 E35"/>
    </vehicle>
    <vehicle id="fuchenglu_west_T2.1" type="vt_car" depart="16.98" departLane="best">
        <route edges="E37 E38 E36"/>
    </vehicle>
    <vehicle id="shoutinanlu_north_T2.2" type="vt_car" depart="18.60" departLane="best">
        <route edges="E10 E11 E12 E13 E16 E17 E29 E30 E35"/>
    </vehicle>
    <vehicle id="chegongzhuangxilu_east_T2.2" type="vt_car" depart="19.05" departLane="best">
        <route edges="E3 E4 E5 E6"/>
    </vehicle>
    <vehicle id="chegongzhuangxilu_west_T2.1" type="vt_car" depart="21.95" departLane="best">
        <route edges="E8 E9 E7"/>
    </vehicle>
    <vehicle id="zengguanglu_east_T2.1" type="vt_car" depart="25.18" departLane="best">
        <route edges="E19 E18 E24 E25"/>
    </vehicle>
    <vehicle id="shoutinanlu_north_T2.3" type="vt_car" depart="27.91" departLane="best">
        <route edges="E10 E11 E12 E13 E7"/>
    </vehicle>
    <vehicle id="chegongzhuangxilu_east_T2.3" type="vt_car" depart="28.57" departLane="best">
        <route edges="E3 E4 E5 E6"/>
    </vehicle>
    <vehicle id="fuchenglu_east_T2.2" type="vt_car" depart="29.88" departLane="best">
        <route edges="E33 E34 E35"/>
    </vehicle>
    <vehicle id="fuchenglu_west_T2.2" type="vt_car" depart="33.96" departLane="best">
        <route edges="E37 E38 E27 E26 E15 E14 E6"/>
    </vehicle>
    <vehicle id="shoutinanlu_north_T2.4" type="vt_car" depart="37.21" departLane="best">
        <route edges="E10 E11 E12 E13 E16 E17 E20 E21"/>
    </vehicle>
    <vehicle id="chegongzhuangxilu_east_T2.4" type="vt_car" depart="38.10" departLane="best">
        <route edges="E3 E4 E5 E16 E17 E24 E25"/>
    </vehicle>
    <vehicle id="zengguanglu_west_T2.1" type="vt_car" depart="40.91" departLane="best">
        <route edges="E23 E22 E20 E21"/>
    </vehicle>
    <vehicle id="chegongzhuangxilu_west_T2.2" type="vt_car" depart="43.90" departLane="best">
        <route edges="E8 E9 E16 E17 E29 E30 E36"/>
    </vehicle>
    <vehicle id="fuchenglu_east_T2.3" type="vt_car" depart="44.81" departLane="best">
        <route edges="E33 E34 E35"/>
    </vehicle>
    <vehicle id="shoutinanlu_north_T2.5" type="vt_car" depart="46.51" departLane="best">
        <route edges="E10 E11 E12 E13 E16 E17 E29 E30 E35"/>
    </vehicle>
    <vehicle id="chegongzhuangxilu_east_T2.5" type="vt_car" depart="47.62" departLane="best">
        <route edges="E3 E4 E5 E6"/>
    </vehicle>
    <vehicle id="zengguanglu_east_T2.2" type="vt_car" depart="50.35" departLane="best">
        <route edges="E19 E18 E24 E25"/>
    </vehicle>
    <vehicle id="fuchenglu_west_T2.3" type="vt_car" depart="50.94" departLane="best">
        <route edges="E37 E38 E36"/>
    </vehicle>
    <vehicle id="shoutinanlu_north_T2.6" type="vt_car" depart="55.81" departLane="best">
        <route edges="E10 E11 E12 E13 E16 E17 E15 E14 E0 E1 E2"/>
    </vehicle>
    <vehicle id="chegongzhuangxilu_east_T2.6" type="vt_car" depart="57.14" departLane="best">
        <route edges="E3 E4 E5 E6"/>
    </vehicle>
    <vehicle id="fuchenglu_east_T2.4" type="vt_car" depart="59.75" departLane="best">
        <route edges="E33 E34 E35"/>
    </vehicle>
    <vehicle id="shoutinanlu_north_T2.7" type="vt_car" depart="65.11" departLane="best">
        <route edges="E10 E11 E12 E13 E16 E17 E29 E30 E36"/>
    </vehicle>
    <vehicle id="chegongzhuangxilu_west_T2.3" type="vt_car" depart="65.85" departLane="best">
        <route edges="E8 E9 E0 E1 E2"/>
    </vehicle>
    <vehicle id="chegongzhuangxilu_east_T2.7" type="vt_car" depart="66.67" departLane="best">
        <route edges="E3 E4 E5 E0 E1 E2"/>
    </vehicle>
    <vehicle id="fuchenglu_west_T2.4" type="vt_car" depart="67.92" departLane="best">
        <route edges="E37 E38 E36"/>
    </vehicle>
    <vehicle id="shoutinanlu_north_T2.8" type="vt_car" depart="74.42" departLane="best">
        <route edges="E10 E11 E12 E13 E6"/>
    </vehicle>
    <vehicle id="fuchenglu_east_T2.5" type="vt_car" depart="74.69" departLane="best">
        <route edges="E33 E34 E35"/>
    </vehicle>
    <vehicle id="zengguanglu_east_T2.3" type="vt_car" depart="75.53" departLane="best">
        <route edges="E19 E18 E29 E30 E35"/>
    </vehicle>
    <vehicle id="chegongzhuangxilu_east_T2.8" type="vt_car" depart="76.19" departLane="best">
        <route edges="E3 E4 E5 E16 E17 E24 E25"/>
    </vehicle>
    <vehicle id="zengguanglu_west_T2.2" type="vt_car" depart="81.82" departLane="best">
        <route edges="E23 E22 E20 E21"/>
    </vehicle>
    <vehicle id="shoutinanlu_north_T2.9" type="vt_car" depart="83.72" departLane="best">
        <route edges="E10 E11 E12 E13 E7"/>
    </vehicle>
    <vehicle id="fuchenglu_west_T2.5" type="vt_car" depart="84.91" departLane="best">
        <route edges="E37 E38 E27 E26 E24 E25"/>
    </vehicle>
    <vehicle id="chegongzhuangxilu_east_T2.9" type="vt_car" depart="85.72" departLane="best">
        <route edges="E3 E4 E5 E0 E1 E2"/>
    </vehicle>
    <vehicle id="chegongzhuangxilu_west_T2.4" type="vt_car" depart="87.80" departLane="best">
        <route edges="E8 E9 E16 E17 E29 E30 E36"/>
    </vehicle>
    <vehicle id="fuchenglu_east_T2.6" type="vt_car" depart="89.63" departLane="best">
        <route edges="E33 E34 E35"/>
    </vehicle>
    <vehicle id="shoutinanlu_north_T2.10" type="vt_car" depart="93.02" departLane="best">
        <route edges="E10 E11 E12 E13 E7"/>
    </vehicle>
    <vehicle id="chegongzhuangxilu_east_T2.10" type="vt_car" depart="95.24" departLane="best">
        <route edges="E3 E4 E5 E6"/>
    </vehicle>
    <vehicle id="zengguanglu_east_T2.4" type="vt_car" depart="100.70" departLane="best">
        <route edges="E19 E18 E29 E30 E36"/>
    </vehicle>
    <vehicle id="fuchenglu_west_T2.6" type="vt_car" depart="101.89" departLane="best">
        <route edges="E37 E38 E27 E26 E29 E30 E35"/>
    </vehicle>
    <vehicle id="shoutinanlu_north_T2.11" type="vt_car" depart="102.32" departLane="best">
        <route edges="E10 E11 E12 E13 E0 E1 E2"/>
    </vehicle>
    <vehicle id="fuchenglu_east_T2.7" type="vt_car" depart="104.57" departLane="best">
        <route edges="E33 E34 E27 E26 E15 E14 E16 E17 E29 E30 E35"/>
    </vehicle>
    <vehicle id="chegongzhuangxilu_east_T2.11" type="vt_car" depart="104.76" departLane="best">
        <route edges="E3 E4 E5 E6"/>
    </vehicle>
    <vehicle id="chegongzhuangxilu_west_T2.5" type="vt_car" depart="109.76" departLane="best">
        <route edges="E8 E9 E7"/>
    </vehicle>
    <vehicle id="shoutinanlu_north_T2.12" type="vt_car" depart="111.62" departLane="best">
        <route edges="E10 E11 E12 E13 E16 E17 E20 E21"/>
    </vehicle>
    <vehicle id="chegongzhuangxilu_east_T2.12" type="vt_car" depart="114.29" departLane="best">
        <route edges="E3 E4 E5 E6"/>
    </vehicle>
    <vehicle id="fuchenglu_west_T2.7" type="vt_car" depart="118.87" departLane="best">
        <route edges="E37 E38 E36"/>
    </vehicle>
    <vehicle id="fuchenglu_east_T2.8" type="vt_car" depart="119.50" departLane="best">
        <route edges="E33 E34 E27 E26 E15 E14 E0 E1 E2"/>
    </vehicle>
    <vehicle id="shoutinanlu_north_T2.13" type="vt_car" depart="120.93" departLane="best">
        <route edges="E10 E11 E12 E13 E16 E17 E29 E30 E36"/>
    </vehicle>
    <vehicle id="zengguanglu_west_T2.3" type="vt_car" depart="122.73" departLane="best">
        <route edges="E23 E22 E20 E21"/>
    </vehicle>
    <vehicle id="chegongzhuangxilu_east_T2.13" type="vt_car" depart="123.81" departLane="best">
        <route edges="E3 E4 E5 E6"/>
    </vehicle>
    <vehicle id="zengguanglu_east_T2.5" type="vt_car" depart="125.88" departLane="best">
        <route edges="E19 E18 E29 E30 E36"/>
    </vehicle>
    <vehicle id="shoutinanlu_north_T2.14" type="vt_car" depart="130.23" departLane="best">
        <route edges="E10 E11 E12 E13 E16 E17 E29 E30 E35"/>
    </vehicle>
    <vehicle id="chegongzhuangxilu_west_T2.6" type="vt_car" depart="131.71" departLane="best">
        <route edges="E8 E9 E7"/>
    </vehicle>
    <vehicle id="chegongzhuangxilu_east_T2.14" type="vt_car" depart="133.34" departLane="best">
        <route edges="E3 E4 E5 E6"/>
    </vehicle>
    <vehicle id="fuchenglu_east_T2.9" type="vt_car" depart="134.44" departLane="best">
        <route edges="E33 E34 E35"/>
    </vehicle>
    <vehicle id="fuchenglu_west_T2.8" type="vt_car" depart="135.85" departLane="best">
        <route edges="E37 E38 E36"/>
    </vehicle>
    <vehicle id="shoutinanlu_north_T2.15" type="vt_car" depart="139.53" departLane="best">
        <route edges="E10 E11 E12 E13 E16 E17 E29 E30 E35"/>
    </vehicle>
    <vehicle id="chegongzhuangxilu_east_T2.15" type="vt_car" depart="142.86" departLane="best">
        <route edges="E3 E4 E5 E0 E1 E2"/>
    </vehicle>
    <vehicle id="shoutinanlu_north_T2.16" type="vt_car" depart="148.83" departLane="best">
        <route edges="E10 E11 E12 E13 E6"/>
    </vehicle>
    <vehicle id="fuchenglu_east_T2.10" type="vt_car" depart="149.38" departLane="best">
        <route edges="E33 E34 E27 E26 E20 E21"/>
    </vehicle>
    <vehicle id="zengguanglu_east_T2.6" type="vt_car" depart="151.05" departLane="best">
        <route edges="E19 E18 E24 E25"/>
    </vehicle>
    <vehicle id="chegongzhuangxilu_east_T2.16" type="vt_car" depart="152.38" departLane="best">
        <route edges="E3 E4 E5 E6"/>
    </vehicle>
    <vehicle id="fuchenglu_west_T2.9" type="vt_car" depart="152.83" departLane="best">
        <route edges="E37 E38 E36"/>
    </vehicle>
    <vehicle id="chegongzhuangxilu_west_T2.7" type="vt_car" depart="153.66" departLane="best">
        <route edges="E8 E9 E16 E17 E29 E30 E35"/>
    </vehicle>
    <vehicle id="shoutinanlu_north_T2.17" type="vt_car" depart="158.13" departLane="best">
        <route edges="E10 E11 E12 E13 E16 E17 E24 E25"/>
    </vehicle>
    <vehicle id="chegongzhuangxilu_east_T2.17" type="vt_car" depart="161.91" departLane="best">
        <route edges="E3 E4 E5 E16 E17 E29 E30 E35"/>
    </vehicle>
    <vehicle id="zengguanglu_west_T2.4" type="vt_car" depart="163.64" departLane="best">
        <route edges="E23 E22 E20 E21"/>
    </vehicle>
    <vehicle id="fuchenglu_east_T2.11" type="vt_car" depart="164.32" departLane="best">
        <route edges="E33 E34 E35"/>
    </vehicle>
    <vehicle id="shoutinanlu_north_T2.18" type="vt_car" depart="167.44" departLane="best">
        <route edges="E10 E11 E12 E13 E16 E17 E29 E30 E35"/>
    </vehicle>
    <vehicle id="fuchenglu_west_T2.10" type="vt_car" depart="169.81" departLane="best">
        <route edges="E37 E38 E36"/>
    </vehicle>
    <vehicle id="chegongzhuangxilu_east_T2.18" type="vt_car" depart="171.43" departLane="best">
        <route edges="E3 E4 E5 E6"/>
    </vehicle>
    <vehicle id="chegongzhuangxilu_west_T2.8" type="vt_car" depart="175.61" departLane="best">
        <route edges="E8 E9 E16 E17 E29 E30 E36"/>
    </vehicle>
    <vehicle id="zengguanglu_east_T2.7" type="vt_car" depart="176.23" departLane="best">
        <route edges="E19 E18 E24 E25"/>
    </vehicle>
    <vehicle id="shoutinanlu_north_T2.19" type="vt_car" depart="176.74" departLane="best">
        <route edges="E10 E11 E12 E13 E6"/>
    </vehicle>
    <vehicle id="fuchenglu_east_T2.12" type="vt_car" depart="179.26" departLane="best">
        <route edges="E33 E34 E35"/>
    </vehicle>
    <vehicle id="chegongzhuangxilu_east_T2.19" type="vt_car" depart="180.96" departLane="best">
        <route edges="E3 E4 E5 E7"/>
    </vehicle>
    <vehicle id="shoutinanlu_north_T2.20" type="vt_car" depart="186.04" departLane="best">
        <route edges="E10 E11 E12 E13 E16 E17 E29 E30 E36"/>
    </vehicle>
    <vehicle id="fuchenglu_west_T2.11" type="vt_car" depart="186.79" departLane="best">
        <route edges="E37 E38 E36"/>
    </vehicle>
    <vehicle id="chegongzhuangxilu_east_T2.20" type="vt_car" depart="190.48" departLane="best">
        <route edges="E3 E4 E5 E6"/>
    </vehicle>
    <vehicle id="fuchenglu_east_T2.13" type="vt_car" depart="194.19" departLane="best">
        <route edges="E33 E34 E35"/>
    </vehicle>
    <vehicle id="shoutinanlu_north_T2.21" type="vt_car" depart="195.34" departLane="best">
        <route edges="E10 E11 E12 E13 E6"/>
    </vehicle>
    <vehicle id="chegongzhuangxilu_west_T2.9" type="vt_car" depart="197.56" departLane="best">
        <route edges="E8 E9 E7"/>
    </vehicle>
    <vehicle id="chegongzhuangxilu_east_T2.21" type="vt_car" depart="200.00" departLane="best">
        <route edges="E3 E4 E5 E6"/>
    </vehicle>
    <vehicle id="zengguanglu_east_T2.8" type="vt_car" depart="201.40" departLane="best">
        <route edges="E19 E18 E29 E30 E36"/>
    </vehicle>
    <vehicle id="fuchenglu_west_T2.12" type="vt_car" depart="203.77" departLane="best">
        <route edges="E37 E38 E36"/>
    </vehicle>
    <vehicle id="zengguanglu_west_T2.5" type="vt_car" depart="204.55" departLane="best">
        <route edges="E23 E22 E20 E21"/>
    </vehicle>
    <vehicle id="shoutinanlu_north_T2.22" type="vt_car" depart="204.64" departLane="best">
        <route edges="E10 E11 E12 E13 E16 E17 E29 E30 E35"/>
    </vehicle>
    <vehicle id="fuchenglu_east_T2.14" type="vt_car" depart="209.13" departLane="best">
        <route edges="E33 E34 E35"/>
    </vehicle>
    <vehicle id="chegongzhuangxilu_east_T2.22" type="vt_car" depart="209.53" departLane="best">
        <route edges="E3 E4 E5 E16 E17 E29 E30 E36"/>
    </vehicle>
    <vehicle id="shoutinanlu_north_T2.23" type="vt_car" depart="213.95" departLane="best">
        <route edges="E10 E11 E12 E13 E16 E17 E29 E30 E35"/>
    </vehicle>
    <vehicle id="chegongzhuangxilu_east_T2.23" type="vt_car" depart="219.05" departLane="best">
        <route edges="E3 E4 E5 E6"/>
    </vehicle>
    <vehicle id="chegongzhuangxilu_west_T2.10" type="vt_car" depart="219.51" departLane="best">
        <route edges="E8 E9 E16 E17 E29 E30 E36"/>
    </vehicle>
    <vehicle id="fuchenglu_west_T2.13" type="vt_car" depart="220.75" departLane="best">
        <route edges="E37 E38 E27 E26 E20 E21"/>
    </vehicle>
    <vehicle id="shoutinanlu_north_T2.24" type="vt_car" depart="223.25" departLane="best">
        <route edges="E10 E11 E12 E13 E6"/>
    </vehicle>
    <vehicle id="fuchenglu_east_T2.15" type="vt_car" depart="224.07" departLane="best">
        <route edges="E33 E34 E35"/>
    </vehicle>
    <vehicle id="zengguanglu_east_T2.9" type="vt_car" depart="226.58" departLane="best">
        <route edges="E19 E18 E24 E25"/>
    </vehicle>
    <vehicle id="chegongzhuangxilu_east_T2.24" type="vt_car" depart="228.58" departLane="best">
        <route edges="E3 E4 E5 E6"/>
    </vehicle>
    <vehicle id="shoutinanlu_north_T2.25" type="vt_car" depart="232.55" departLane="best">
        <route edges="E10 E11 E12 E13 E6"/>
    </vehicle>
    <vehicle id="fuchenglu_west_T2.14" type="vt_car" depart="237.73" departLane="best">
        <route edges="E37 E38 E36"/>
    </vehicle>
    <vehicle id="chegongzhuangxilu_east_T2.25" type="vt_car" depart="238.10" departLane="best">
        <route edges="E3 E4 E5 E0 E1 E2"/>
    </vehicle>
    <vehicle id="fuchenglu_east_T2.16" type="vt_car" depart="239.01" departLane="best">
        <route edges="E33 E34 E35"/>
    </vehicle>
    <vehicle id="chegongzhuangxilu_west_T2.11" type="vt_car" depart="241.46" departLane="best">
        <route edges="E8 E9 E7"/>
    </vehicle>
    <vehicle id="shoutinanlu_north_T2.26" type="vt_car" depart="241.85" departLane="best">
        <route edges="E10 E11 E12 E13 E6"/>
    </vehicle>
    <vehicle id="zengguanglu_west_T2.6" type="vt_car" depart="245.45" departLane="best">
        <route edges="E23 E22 E20 E21"/>
    </vehicle>
    <vehicle id="chegongzhuangxilu_east_T2.26" type="vt_car" depart="247.62" departLane="best">
        <route edges="E3 E4 E5 E6"/>
    </vehicle>
    <vehicle id="shoutinanlu_north_T2.27" type="vt_car" depart="251.15" departLane="best">
        <route edges="E10 E11 E12 E13 E16 E17 E24 E25"/>
    </vehicle>
    <vehicle id="zengguanglu_east_T2.10" type="vt_car" depart="251.75" departLane="best">
        <route edges="E19 E18 E15 E14 E6"/>
    </vehicle>
    <vehicle id="fuchenglu_east_T2.17" type="vt_car" depart="253.95" departLane="best">
        <route edges="E33 E34 E35"/>
    </vehicle>
    <vehicle id="fuchenglu_west_T2.15" type="vt_car" depart="254.72" departLane="best">
        <route edges="E37 E38 E36"/>
    </vehicle>
    <vehicle id="chegongzhuangxilu_east_T2.27" type="vt_car" depart="257.15" departLane="best">
        <route edges="E3 E4 E5 E7"/>
    </vehicle>
    <vehicle id="shoutinanlu_north_T2.28" type="vt_car" depart="260.46" departLane="best">
        <route edges="E10 E11 E12 E13 E16 E17 E24 E25"/>
    </vehicle>
    <vehicle id="chegongzhuangxilu_west_T2.12" type="vt_car" depart="263.41" departLane="best">
        <route edges="E8 E9 E7"/>
    </vehicle>
    <vehicle id="chegongzhuangxilu_east_T2.28" type="vt_car" depart="266.67" departLane="best">
        <route edges="E3 E4 E5 E6"/>
    </vehicle>
    <vehicle id="fuchenglu_east_T2.18" type="vt_car" depart="268.88" departLane="best">
        <route edges="E33 E34 E35"/>
    </vehicle>
    <vehicle id="shoutinanlu_north_T2.29" type="vt_car" depart="269.76" departLane="best">
        <route edges="E10 E11 E12 E13 E16 E17 E29 E30 E35"/>
    </vehicle>
    <vehicle id="fuchenglu_west_T2.16" type="vt_car" depart="271.70" departLane="best">
        <route edges="E37 E38 E36"/>
    </vehicle>
    <vehicle id="chegongzhuangxilu_east_T2.29" type="vt_car" depart="276.20" departLane="best">
        <route edges="E3 E4 E5 E6"/>
    </vehicle>
    <vehicle id="zengguanglu_east_T2.11" type="vt_car" depart="276.93" departLane="best">
        <route edges="E19 E18 E29 E30 E35"/>
    </vehicle>
    <vehicle id="shoutinanlu_north_T2.30" type="vt_car" depart="279.06" departLane="best">
        <route edges="E10 E11 E12 E13 E6"/>
    </vehicle>
    <vehicle id="fuchenglu_east_T2.19" type="vt_car" depart="283.82" departLane="best">
        <route edges="E33 E34 E35"/>
    </vehicle>
    <vehicle id="chegongzhuangxilu_west_T2.13" type="vt_car" depart="285.36" departLane="best">
        <route edges="E8 E9 E0 E1 E2"/>
    </vehicle>
    <vehicle id="chegongzhuangxilu_east_T2.30" type="vt_car" depart="285.72" departLane="best">
        <route edges="E3 E4 E5 E16 E17 E24 E25"/>
    </vehicle>
    <vehicle id="zengguanglu_west_T2.7" type="vt_car" depart="286.36" departLane="best">
        <route edges="E23 E22 E15 E14 E0 E1 E2"/>
    </vehicle>
    <vehicle id="shoutinanlu_north_T2.31" type="vt_car" depart="288.36" departLane="best">
        <route edges="E10 E11 E12 E13 E16 E17 E20 E21"/>
    </vehicle>
    <vehicle id="fuchenglu_west_T2.17" type="vt_car" depart="288.68" departLane="best">
        <route edges="E37 E38 E36"/>
    </vehicle>
    <vehicle id="chegongzhuangxilu_east_T2.31" type="vt_car" depart="295.24" departLane="best">
        <route edges="E3 E4 E5 E6"/>
    </vehicle>
    <vehicle id="shoutinanlu_north_T2.32" type="vt_car" depart="297.66" departLane="best">
        <route edges="E10 E11 E12 E13 E6"/>
    </vehicle>
    <vehicle id="fuchenglu_east_T2.20" type="vt_car" depart="298.76" departLane="best">
        <route edges="E33 E34 E35"/>
    </vehicle>
    <vehicle id="zengguanglu_east_T2.12" type="vt_car" depart="302.10" departLane="best">
        <route edges="E19 E18 E24 E25"/>
    </vehicle>
    <vehicle id="chegongzhuangxilu_east_T2.32" type="vt_car" depart="304.77" departLane="best">
        <route edges="E3 E4 E5 E6"/>
    </vehicle>
    <vehicle id="fuchenglu_west_T2.18" type="vt_car" depart="305.66" departLane="best">
        <route edges="E37 E38 E36"/>
    </vehicle>
    <vehicle id="shoutinanlu_north_T2.33" type="vt_car" depart="306.97" departLane="best">
        <route edges="E10 E11 E12 E13 E16 E17 E29 E30 E36"/>
    </vehicle>
    <vehicle id="chegongzhuangxilu_west_T2.14" type="vt_car" depart="307.31" departLane="best">
        <route edges="E8 E9 E7"/>
    </vehicle>
    <vehicle id="fuchenglu_east_T2.21" type="vt_car" depart="313.70" departLane="best">
        <route edges="E33 E34 E35"/>
    </vehicle>
    <vehicle id="chegongzhuangxilu_east_T2.33" type="vt_car" depart="314.29" departLane="best">
        <route edges="E3 E4 E5 E6"/>
    </vehicle>
    <vehicle id="shoutinanlu_north_T2.34" type="vt_car" depart="316.27" departLane="best">
        <route edges="E10 E11 E12 E13 E6"/>
    </vehicle>
    <vehicle id="fuchenglu_west_T2.19" type="vt_car" depart="322.64" departLane="best">
        <route edges="E37 E38 E36"/>
    </vehicle>
    <vehicle id="chegongzhuangxilu_east_T2.34" type="vt_car" depart="323.82" departLane="best">
        <route edges="E3 E4 E5 E16 E17 E20 E21"/>
    </vehicle>
    <vehicle id="shoutinanlu_north_T2.35" type="vt_car" depart="325.57" departLane="best">
        <route edges="E10 E11 E12 E13 E7"/>
    </vehicle>
    <vehicle id="zengguanglu_west_T2.8" type="vt_car" depart="327.27" departLane="best">
        <route edges="E23 E22 E15 E14 E0 E1 E2"/>
    </vehicle>
    <vehicle id="zengguanglu_east_T2.13" type="vt_car" depart="327.28" departLane="best">
        <route edges="E19 E18 E29 E30 E35"/>
    </vehicle>
    <vehicle id="fuchenglu_east_T2.22" type="vt_car" depart="328.64" departLane="best">
        <route edges="E33 E34 E35"/>
    </vehicle>
    <vehicle id="chegongzhuangxilu_west_T2.15" type="vt_car" depart="329.27" departLane="best">
        <route edges="E8 E9 E7"/>
    </vehicle>
    <vehicle id="chegongzhuangxilu_east_T2.35" type="vt_car" depart="333.34" departLane="best">
        <route edges="E3 E4 E5 E6"/>
    </vehicle>
    <vehicle id="shoutinanlu_north_T2.36" type="vt_car" depart="334.87" departLane="best">
        <route edges="E10 E11 E12 E13 E16 E17 E29 E30 E35"/>
    </vehicle>
    <vehicle id="fuchenglu_west_T2.20" type="vt_car" depart="339.62" departLane="best">
        <route edges="E37 E38 E36"/>
    </vehicle>
    <vehicle id="chegongzhuangxilu_east_T2.36" type="vt_car" depart="342.86" departLane="best">
        <route edges="E3 E4 E5 E6"/>
    </vehicle>
    <vehicle id="fuchenglu_east_T2.23" type="vt_car" depart="343.57" departLane="best">
        <route edges="E33 E34 E35"/>
    </vehicle>
    <vehicle id="shoutinanlu_north_T2.37" type="vt_car" depart="344.17" departLane="best">
        <route edges="E10 E11 E12 E13 E6"/>
    </vehicle>
    <vehicle id="chegongzhuangxilu_west_T2.16" type="vt_car" depart="351.22" departLane="best">
        <route edges="E8 E9 E7"/>
    </vehicle>
    <vehicle id="chegongzhuangxilu_east_T2.37" type="vt_car" depart="352.39" departLane="best">
        <route edges="E3 E4 E5 E16 E17 E29 E30 E36"/>
    </vehicle>
    <vehicle id="zengguanglu_east_T2.14" type="vt_car" depart="352.45" departLane="best">
        <route edges="E19 E18 E24 E25"/>
    </vehicle>
    <vehicle id="shoutinanlu_north_T2.38" type="vt_car" depart="353.48" departLane="best">
        <route edges="E10 E11 E12 E13 E16 E17 E24 E25"/>
    </vehicle>
    <vehicle id="fuchenglu_west_T2.21" type="vt_car" depart="356.60" departLane="best">
        <route edges="E37 E38 E36"/>
    </vehicle>
    <vehicle id="fuchenglu_east_T2.24" type="vt_car" depart="358.51" departLane="best">
        <route edges="E33 E34 E35"/>
    </vehicle>
    <vehicle id="chegongzhuangxilu_east_T2.38" type="vt_car" depart="361.91" departLane="best">
        <route edges="E3 E4 E5 E6"/>
    </vehicle>
    <vehicle id="shoutinanlu_north_T2.39" type="vt_car" depart="362.78" departLane="best">
        <route edges="E10 E11 E12 E13 E16 E17 E24 E25"/>
    </vehicle>
    <vehicle id="zengguanglu_west_T2.9" type="vt_car" depart="368.18" departLane="best">
        <route edges="E23 E22 E15 E14 E6"/>
    </vehicle>
    <vehicle id="chegongzhuangxilu_east_T2.39" type="vt_car" depart="371.44" departLane="best">
        <route edges="E3 E4 E5 E6"/>
    </vehicle>
    <vehicle id="shoutinanlu_north_T2.40" type="vt_car" depart="372.08" departLane="best">
        <route edges="E10 E11 E12 E13 E7"/>
    </vehicle>
    <vehicle id="chegongzhuangxilu_west_T2.17" type="vt_car" depart="373.17" departLane="best">
        <route edges="E8 E9 E16 E17 E29 E30 E35"/>
    </vehicle>
    <vehicle id="fuchenglu_east_T2.25" type="vt_car" depart="373.45" departLane="best">
        <route edges="E33 E34 E35"/>
    </vehicle>
    <vehicle id="fuchenglu_west_T2.22" type="vt_car" depart="373.58" departLane="best">
        <route edges="E37 E38 E36"/>
    </vehicle>
    <vehicle id="zengguanglu_east_T2.15" type="vt_car" depart="377.63" departLane="best">
        <route edges="E19 E18 E24 E25"/>
    </vehicle>
    <vehicle id="chegongzhuangxilu_east_T2.40" type="vt_car" depart="380.96" departLane="best">
        <route edges="E3 E4 E5 E6"/>
    </vehicle>
    <vehicle id="shoutinanlu_north_T2.41" type="vt_car" depart="381.38" departLane="best">
        <route edges="E10 E11 E12 E13 E16 E17 E29 E30 E35"/>
    </vehicle>
    <vehicle id="fuchenglu_east_T2.26" type="vt_car" depart="388.39" departLane="best">
        <route edges="E33 E34 E35"/>
    </vehicle>
    <vehicle id="chegongzhuangxilu_east_T2.41" type="vt_car" depart="390.48" departLane="best">
        <route edges="E3 E4 E5 E6"/>
    </vehicle>
    <vehicle id="fuchenglu_west_T2.23" type="vt_car" depart="390.56" departLane="best">
        <route edges="E37 E38 E36"/>
    </vehicle>
    <vehicle id="shoutinanlu_north_T2.42" type="vt_car" depart="390.68" departLane="best">
        <route edges="E10 E11 E12 E13 E16 E17 E29 E30 E35"/>
    </vehicle>
    <vehicle id="chegongzhuangxilu_west_T2.18" type="vt_car" depart="395.12" departLane="best">
        <route edges="E8 E9 E0 E1 E2"/>
    </vehicle>
    <vehicle id="shoutinanlu_north_T2.43" type="vt_car" depart="399.99" departLane="best">
        <route edges="E10 E11 E12 E13 E16 E17 E29 E30 E35"/>
    </vehicle>
    <vehicle id="chegongzhuangxilu_east_T2.42" type="vt_car" depart="400.01" departLane="best">
        <route edges="E3 E4 E5 E6"/>
    </vehicle>
    <vehicle id="zengguanglu_east_T2.16" type="vt_car" depart="402.80" departLane="best">
        <route edges="E19 E18 E24 E25"/>
    </vehicle>
    <vehicle id="fuchenglu_east_T2.27" type="vt_car" depart="403.33" departLane="best">
        <route edges="E33 E34 E35"/>
    </vehicle>
    <vehicle id="fuchenglu_west_T2.24" type="vt_car" depart="407.54" departLane="best">
        <route edges="E37 E38 E27 E26 E15 E14 E0 E1 E2"/>
    </vehicle>
    <vehicle id="zengguanglu_west_T2.10" type="vt_car" depart="409.09" departLane="best">
        <route edges="E23 E22 E20 E21"/>
    </vehicle>
    <vehicle id="shoutinanlu_north_T2.44" type="vt_car" depart="409.29" departLane="best">
        <route edges="E10 E11 E12 E13 E0 E1 E2"/>
    </vehicle>
    <vehicle id="chegongzhuangxilu_east_T2.43" type="vt_car" depart="409.53" departLane="best">
        <route edges="E3 E4 E5 E6"/>
    </vehicle>
    <vehicle id="chegongzhuangxilu_west_T2.19" type="vt_car" depart="417.07" departLane="best">
        <route edges="E8 E9 E7"/>
    </vehicle>
    <vehicle id="fuchenglu_east_T2.28" type="vt_car" depart="418.26" departLane="best">
        <route edges="E33 E34 E35"/>
    </vehicle>
    <vehicle id="shoutinanlu_north_T2.45" type="vt_car" depart="418.59" departLane="best">
        <route edges="E10 E11 E12 E13 E7"/>
    </vehicle>
    <vehicle id="chegongzhuangxilu_east_T2.44" type="vt_car" depart="419.06" departLane="best">
        <route edges="E3 E4 E5 E6"/>
    </vehicle>
    <vehicle id="fuchenglu_west_T2.25" type="vt_car" depart="424.53" departLane="best">
        <route edges="E37 E38 E36"/>
    </vehicle>
    <vehicle id="shoutinanlu_north_T2.46" type="vt_car" depart="427.89" departLane="best">