<additional>
 <laneAreaDetector id="north_0" lane="E0_0" pos="100" length="200" freq="300" file="OUTPUT.E2.xml"/>
 <laneAreaDetector id="north_1" lane="E0_1" pos="100" length="200" freq="300" file="OUTPUT.E2.xml"/>
 <laneAreaDetector id="north_2" lane="E0_2" pos="100" length="200" freq="300" file="OUTPUT.E2.xml"/>

 <laneAreaDetector id="westh_0" lane="E1_0" pos="100" length="200" freq="300" file="OUTPUT.E2.xml"/>
 <laneAreaDetector id="westh_1" lane="E1_1" pos="100" length="200" freq="300" file="OUTPUT.E2.xml"/>
 <laneAreaDetector id="westh_2" lane="E1_2" pos="100" length="200" freq="300" file="OUTPUT.E2.xml"/>

 <laneAreaDetector id="south_0" lane="E2_0" pos="100" length="200" freq="300" file="OUTPUT.E2.xml"/>
 <laneAreaDetector id="south_1" lane="E2_1" pos="100" length="200" freq="300" file="OUTPUT.E2.xml"/>
 <laneAreaDetector id="south_2" lane="E2_2" pos="100" length="200" freq="300" file="OUTPUT.E2.xml"/>

 <laneAreaDetector id="east_0" lane="E3_0" pos="100" length="200" freq="300" file="OUTPUT.E2.xml"/>
 <laneAreaDetector id="east_1" lane="E3_1" pos="100" length="200" freq="300" file="OUTPUT.E2.xml"/>
 <laneAreaDetector id="east_2" lane="E3_2" pos="100" length="200" freq="300" file="OUTPUT.E2.xml"/>
 </additional>